* NGSPICE file created from adder_4bit.ext - technology: sky130A

.subckt adder_4bit Cin Cout VDD GND A[0] B[0] A[2] B[2] B[1] A[1] Sum[2] B[3] A[3]
+ Sum[0] Sum[1] Sum[3]
X0 a_985_2015# x1.x3.Y GND.t66 GND.t65 sky130_fd_pr__nfet_01v8 ad=0.08775 pd=0.92 as=0.169 ps=1.82 w=0.65 l=0.15
X1 a_1813_735# x3.Cin GND.t83 GND.t82 sky130_fd_pr__nfet_01v8 ad=0.08775 pd=0.92 as=0.169 ps=1.82 w=0.65 l=0.15
X2 VDD.t1 x1.x2.Y x1.x4.Y VDD.t0 sky130_fd_pr__pfet_01v8_hvt ad=0.26 pd=2.52 as=0.135 ps=1.27 w=1 l=0.15
X3 GND.t52 x2.Cin a_1343_1695# GND.t51 sky130_fd_pr__nfet_01v8 ad=0.169 pd=1.82 as=0.08775 ps=0.92 w=0.65 l=0.15
X4 x4.x6.Y x4.x4.Y VDD.t55 VDD.t54 sky130_fd_pr__pfet_01v8_hvt ad=0.135 pd=1.27 as=0.26 ps=2.52 w=1 l=0.15
X5 GND.t103 B[3].t3 a_1895_415# GND.t102 sky130_fd_pr__nfet_01v8 ad=0.169 pd=1.82 as=0.08775 ps=0.92 w=0.65 l=0.15
X6 x1.x1.Y B[0].t3 VDD.t105 VDD.t104 sky130_fd_pr__pfet_01v8_hvt ad=0.135 pd=1.27 as=0.26 ps=2.52 w=1 l=0.15
X7 a_515_1695# x2.x6.Y Sum[1].t2 GND.t67 sky130_fd_pr__nfet_01v8 ad=0.08775 pd=0.92 as=0.169 ps=1.82 w=0.65 l=0.15
X8 VDD.t61 x1.x4.Y x1.x6.Y VDD.t60 sky130_fd_pr__pfet_01v8_hvt ad=0.26 pd=2.52 as=0.135 ps=1.27 w=1 l=0.15
X9 x4.x5.Y x4.x4.Y VDD.t57 VDD.t56 sky130_fd_pr__pfet_01v8_hvt ad=0.135 pd=1.27 as=0.26 ps=2.52 w=1 l=0.15
X10 a_239_415# x4.x1.Y Cout.t2 GND.t37 sky130_fd_pr__nfet_01v8 ad=0.08775 pd=0.92 as=0.169 ps=1.82 w=0.65 l=0.15
X11 VDD.t33 x3.x4.Y x3.x5.Y VDD.t32 sky130_fd_pr__pfet_01v8_hvt ad=0.26 pd=2.52 as=0.135 ps=1.27 w=1 l=0.15
X12 x3.x6.Y x3.x5.Y VDD.t29 VDD.t28 sky130_fd_pr__pfet_01v8_hvt ad=0.135 pd=1.27 as=0.26 ps=2.52 w=1 l=0.15
X13 VDD.t119 B[1].t0 x2.x1.Y VDD.t118 sky130_fd_pr__pfet_01v8_hvt ad=0.26 pd=2.52 as=0.135 ps=1.27 w=1 l=0.15
X14 a_2447_1695# A[1].t2 x2.x1.Y GND.t91 sky130_fd_pr__nfet_01v8 ad=0.08775 pd=0.92 as=0.169 ps=1.82 w=0.65 l=0.15
X15 GND.t46 x4.x3.Y a_1619_415# GND.t45 sky130_fd_pr__nfet_01v8 ad=0.169 pd=1.82 as=0.08775 ps=0.92 w=0.65 l=0.15
X16 a_709_2015# B[0].t0 GND.t76 GND.t75 sky130_fd_pr__nfet_01v8 ad=0.08775 pd=0.92 as=0.169 ps=1.82 w=0.65 l=0.15
X17 VDD.t53 x4.x1.Y x4.x2.Y VDD.t52 sky130_fd_pr__pfet_01v8_hvt ad=0.26 pd=2.52 as=0.135 ps=1.27 w=1 l=0.15
X18 a_1895_415# x4.x1.Y x4.x3.Y GND.t38 sky130_fd_pr__nfet_01v8 ad=0.08775 pd=0.92 as=0.169 ps=1.82 w=0.65 l=0.15
X19 VDD.t139 B[3].t0 x4.x1.Y VDD.t138 sky130_fd_pr__pfet_01v8_hvt ad=0.26 pd=2.52 as=0.135 ps=1.27 w=1 l=0.15
X20 x3.x5.Y x3.Cin VDD.t111 VDD.t110 sky130_fd_pr__pfet_01v8_hvt ad=0.135 pd=1.27 as=0.26 ps=2.52 w=1 l=0.15
X21 VDD.t43 x3.x1.Y x3.x3.Y VDD.t42 sky130_fd_pr__pfet_01v8_hvt ad=0.26 pd=2.52 as=0.135 ps=1.27 w=1 l=0.15
X22 GND.t63 x2.x5.Y a_1067_1695# GND.t62 sky130_fd_pr__nfet_01v8 ad=0.169 pd=1.82 as=0.08775 ps=0.92 w=0.65 l=0.15
X23 x3.x4.Y x3.x3.Y VDD.t39 VDD.t38 sky130_fd_pr__pfet_01v8_hvt ad=0.135 pd=1.27 as=0.26 ps=2.52 w=1 l=0.15
X24 VDD.t85 x2.x5.Y x3.Cin VDD.t84 sky130_fd_pr__pfet_01v8_hvt ad=0.26 pd=2.52 as=0.135 ps=1.27 w=1 l=0.15
X25 VDD.t37 x3.x2.Y x3.x4.Y VDD.t36 sky130_fd_pr__pfet_01v8_hvt ad=0.26 pd=2.52 as=0.135 ps=1.27 w=1 l=0.15
X26 VDD.t9 x2.x1.Y x2.x2.Y VDD.t8 sky130_fd_pr__pfet_01v8_hvt ad=0.26 pd=2.52 as=0.135 ps=1.27 w=1 l=0.15
X27 x1.x5.Y x1.x4.Y a_1261_2015# GND.t43 sky130_fd_pr__nfet_01v8 ad=0.169 pd=1.82 as=0.08775 ps=0.92 w=0.65 l=0.15
X28 GND.t69 x4.Cin a_1343_415# GND.t68 sky130_fd_pr__nfet_01v8 ad=0.169 pd=1.82 as=0.08775 ps=0.92 w=0.65 l=0.15
X29 x1.x6.Y x1.x5.Y VDD.t15 VDD.t14 sky130_fd_pr__pfet_01v8_hvt ad=0.135 pd=1.27 as=0.26 ps=2.52 w=1 l=0.15
X30 Sum[0].t1 x1.x6.Y a_2089_2015# GND.t64 sky130_fd_pr__nfet_01v8 ad=0.169 pd=1.82 as=0.08775 ps=0.92 w=0.65 l=0.15
X31 x2.Cin x1.x5.Y VDD.t17 VDD.t16 sky130_fd_pr__pfet_01v8_hvt ad=0.135 pd=1.27 as=0.26 ps=2.52 w=1 l=0.15
X32 a_1619_415# x4.x2.Y x4.x4.Y GND.t55 sky130_fd_pr__nfet_01v8 ad=0.08775 pd=0.92 as=0.169 ps=1.82 w=0.65 l=0.15
X33 a_1895_1695# x2.x1.Y x2.x3.Y GND.t4 sky130_fd_pr__nfet_01v8 ad=0.08775 pd=0.92 as=0.169 ps=1.82 w=0.65 l=0.15
X34 a_433_2015# x1.x1.Y GND.t48 GND.t47 sky130_fd_pr__nfet_01v8 ad=0.08775 pd=0.92 as=0.169 ps=1.82 w=0.65 l=0.15
X35 VDD.t45 x3.x1.Y x4.Cin VDD.t44 sky130_fd_pr__pfet_01v8_hvt ad=0.26 pd=2.52 as=0.135 ps=1.27 w=1 l=0.15
X36 VDD.t141 A[2].t2 x3.x2.Y VDD.t140 sky130_fd_pr__pfet_01v8_hvt ad=0.26 pd=2.52 as=0.135 ps=1.27 w=1 l=0.15
X37 x3.x3.Y B[2].t2 VDD.t125 VDD.t124 sky130_fd_pr__pfet_01v8_hvt ad=0.135 pd=1.27 as=0.26 ps=2.52 w=1 l=0.15
X38 GND.t54 x2.Cin a_791_1695# GND.t53 sky130_fd_pr__nfet_01v8 ad=0.169 pd=1.82 as=0.08775 ps=0.92 w=0.65 l=0.15
X39 VDD.t99 x3.x6.Y Sum[2].t1 VDD.t98 sky130_fd_pr__pfet_01v8_hvt ad=0.26 pd=2.52 as=0.135 ps=1.27 w=1 l=0.15
X40 x1.x4.Y x1.x2.Y a_985_2015# GND.t0 sky130_fd_pr__nfet_01v8 ad=0.169 pd=1.82 as=0.08775 ps=0.92 w=0.65 l=0.15
X41 x4.Cin x3.x5.Y VDD.t31 VDD.t30 sky130_fd_pr__pfet_01v8_hvt ad=0.135 pd=1.27 as=0.26 ps=2.52 w=1 l=0.15
X42 x3.Cin x2.x1.Y VDD.t7 VDD.t6 sky130_fd_pr__pfet_01v8_hvt ad=0.135 pd=1.27 as=0.26 ps=2.52 w=1 l=0.15
X43 VDD.t3 x2.x3.Y x2.x4.Y VDD.t2 sky130_fd_pr__pfet_01v8_hvt ad=0.26 pd=2.52 as=0.135 ps=1.27 w=1 l=0.15
X44 Sum[0].t0 x1.x7.Y VDD.t11 VDD.t10 sky130_fd_pr__pfet_01v8_hvt ad=0.135 pd=1.27 as=0.26 ps=2.52 w=1 l=0.15
X45 a_1619_1695# x2.x2.Y x2.x4.Y GND.t56 sky130_fd_pr__nfet_01v8 ad=0.08775 pd=0.92 as=0.169 ps=1.82 w=0.65 l=0.15
X46 a_157_2015# B[0].t1 GND.t78 GND.t77 sky130_fd_pr__nfet_01v8 ad=0.08775 pd=0.92 as=0.169 ps=1.82 w=0.65 l=0.15
X47 VDD.t95 x4.Cin x4.x5.Y VDD.t94 sky130_fd_pr__pfet_01v8_hvt ad=0.26 pd=2.52 as=0.135 ps=1.27 w=1 l=0.15
X48 x1.x6.Y x1.x4.Y a_1537_2015# GND.t44 sky130_fd_pr__nfet_01v8 ad=0.169 pd=1.82 as=0.08775 ps=0.92 w=0.65 l=0.15
X49 x2.x7.Y x2.x5.Y VDD.t83 VDD.t82 sky130_fd_pr__pfet_01v8_hvt ad=0.135 pd=1.27 as=0.26 ps=2.52 w=1 l=0.15
X50 x4.x1.Y A[3].t0 VDD.t129 VDD.t128 sky130_fd_pr__pfet_01v8_hvt ad=0.135 pd=1.27 as=0.26 ps=2.52 w=1 l=0.15
X51 VDD.t63 x4.x3.Y x4.x4.Y VDD.t62 sky130_fd_pr__pfet_01v8_hvt ad=0.26 pd=2.52 as=0.135 ps=1.27 w=1 l=0.15
X52 x3.x5.Y x3.x4.Y a_1261_735# GND.t26 sky130_fd_pr__nfet_01v8 ad=0.169 pd=1.82 as=0.08775 ps=0.92 w=0.65 l=0.15
X53 x1.x7.Y Cin.t2 VDD.t133 VDD.t132 sky130_fd_pr__pfet_01v8_hvt ad=0.135 pd=1.27 as=0.26 ps=2.52 w=1 l=0.15
X54 a_1537_735# x3.x5.Y GND.t22 GND.t21 sky130_fd_pr__nfet_01v8 ad=0.08775 pd=0.92 as=0.169 ps=1.82 w=0.65 l=0.15
X55 GND.t15 x2.x7.Y a_515_1695# GND.t14 sky130_fd_pr__nfet_01v8 ad=0.169 pd=1.82 as=0.08775 ps=0.92 w=0.65 l=0.15
X56 VDD.t23 x4.x5.Y Cout.t0 VDD.t22 sky130_fd_pr__pfet_01v8_hvt ad=0.26 pd=2.52 as=0.135 ps=1.27 w=1 l=0.15
X57 Sum[2].t0 x3.x7.Y VDD.t47 VDD.t46 sky130_fd_pr__pfet_01v8_hvt ad=0.135 pd=1.27 as=0.26 ps=2.52 w=1 l=0.15
X58 VDD.t69 x1.x1.Y x1.x3.Y VDD.t68 sky130_fd_pr__pfet_01v8_hvt ad=0.26 pd=2.52 as=0.135 ps=1.27 w=1 l=0.15
X59 a_1261_735# x3.Cin GND.t81 GND.t80 sky130_fd_pr__nfet_01v8 ad=0.08775 pd=0.92 as=0.169 ps=1.82 w=0.65 l=0.15
X60 x3.x3.Y x3.x1.Y a_709_735# GND.t33 sky130_fd_pr__nfet_01v8 ad=0.169 pd=1.82 as=0.08775 ps=0.92 w=0.65 l=0.15
X61 VDD.t73 x2.Cin x2.x5.Y VDD.t72 sky130_fd_pr__pfet_01v8_hvt ad=0.26 pd=2.52 as=0.135 ps=1.27 w=1 l=0.15
X62 a_985_735# x3.x3.Y GND.t30 GND.t29 sky130_fd_pr__nfet_01v8 ad=0.08775 pd=0.92 as=0.169 ps=1.82 w=0.65 l=0.15
X63 a_1343_1695# x2.x4.Y x2.x5.Y GND.t58 sky130_fd_pr__nfet_01v8 ad=0.08775 pd=0.92 as=0.169 ps=1.82 w=0.65 l=0.15
X64 x3.x4.Y x3.x2.Y a_985_735# GND.t28 sky130_fd_pr__nfet_01v8 ad=0.169 pd=1.82 as=0.08775 ps=0.92 w=0.65 l=0.15
X65 Sum[1].t1 x2.x6.Y VDD.t93 VDD.t92 sky130_fd_pr__pfet_01v8_hvt ad=0.135 pd=1.27 as=0.26 ps=2.52 w=1 l=0.15
X66 a_2171_1695# A[1].t3 x2.x2.Y GND.t90 sky130_fd_pr__nfet_01v8 ad=0.08775 pd=0.92 as=0.169 ps=1.82 w=0.65 l=0.15
X67 x2.x1.Y A[1].t0 VDD.t121 VDD.t120 sky130_fd_pr__pfet_01v8_hvt ad=0.135 pd=1.27 as=0.26 ps=2.52 w=1 l=0.15
X68 a_1537_2015# x1.x5.Y GND.t10 GND.t9 sky130_fd_pr__nfet_01v8 ad=0.08775 pd=0.92 as=0.169 ps=1.82 w=0.65 l=0.15
X69 VDD.t101 A[0].t2 x1.x2.Y VDD.t100 sky130_fd_pr__pfet_01v8_hvt ad=0.26 pd=2.52 as=0.135 ps=1.27 w=1 l=0.15
X70 a_2365_2015# x1.x5.Y GND.t13 GND.t12 sky130_fd_pr__nfet_01v8 ad=0.08775 pd=0.92 as=0.169 ps=1.82 w=0.65 l=0.15
X71 GND.t20 x4.x5.Y a_1067_415# GND.t19 sky130_fd_pr__nfet_01v8 ad=0.169 pd=1.82 as=0.08775 ps=0.92 w=0.65 l=0.15
X72 x4.Cin x3.x1.Y a_2365_735# GND.t34 sky130_fd_pr__nfet_01v8 ad=0.169 pd=1.82 as=0.08775 ps=0.92 w=0.65 l=0.15
X73 x3.x2.Y A[2].t0 a_433_735# GND.t107 sky130_fd_pr__nfet_01v8 ad=0.169 pd=1.82 as=0.08775 ps=0.92 w=0.65 l=0.15
X74 a_1343_415# x4.x4.Y x4.x5.Y GND.t42 sky130_fd_pr__nfet_01v8 ad=0.08775 pd=0.92 as=0.169 ps=1.82 w=0.65 l=0.15
X75 GND.t71 x4.Cin a_791_415# GND.t70 sky130_fd_pr__nfet_01v8 ad=0.169 pd=1.82 as=0.08775 ps=0.92 w=0.65 l=0.15
X76 a_709_735# B[2].t0 GND.t93 GND.t92 sky130_fd_pr__nfet_01v8 ad=0.08775 pd=0.92 as=0.169 ps=1.82 w=0.65 l=0.15
X77 VDD.t87 x2.x5.Y x2.x6.Y VDD.t86 sky130_fd_pr__pfet_01v8_hvt ad=0.26 pd=2.52 as=0.135 ps=1.27 w=1 l=0.15
X78 a_1067_1695# x2.x4.Y x2.x6.Y GND.t57 sky130_fd_pr__nfet_01v8 ad=0.08775 pd=0.92 as=0.169 ps=1.82 w=0.65 l=0.15
X79 VDD.t67 x1.x1.Y x2.Cin VDD.t66 sky130_fd_pr__pfet_01v8_hvt ad=0.26 pd=2.52 as=0.135 ps=1.27 w=1 l=0.15
X80 VDD.t143 A[2].t3 x3.x1.Y VDD.t142 sky130_fd_pr__pfet_01v8_hvt ad=0.26 pd=2.52 as=0.135 ps=1.27 w=1 l=0.15
X81 GND.t87 B[1].t3 a_1895_1695# GND.t86 sky130_fd_pr__nfet_01v8 ad=0.169 pd=1.82 as=0.08775 ps=0.92 w=0.65 l=0.15
X82 x3.x2.Y x3.x1.Y VDD.t41 VDD.t40 sky130_fd_pr__pfet_01v8_hvt ad=0.135 pd=1.27 as=0.26 ps=2.52 w=1 l=0.15
X83 x1.x5.Y Cin.t3 VDD.t135 VDD.t134 sky130_fd_pr__pfet_01v8_hvt ad=0.135 pd=1.27 as=0.26 ps=2.52 w=1 l=0.15
X84 x4.x4.Y x4.x2.Y VDD.t75 VDD.t74 sky130_fd_pr__pfet_01v8_hvt ad=0.135 pd=1.27 as=0.26 ps=2.52 w=1 l=0.15
X85 Cout.t1 x4.x1.Y VDD.t51 VDD.t50 sky130_fd_pr__pfet_01v8_hvt ad=0.135 pd=1.27 as=0.26 ps=2.52 w=1 l=0.15
X86 Sum[2].t2 x3.x6.Y a_2089_735# GND.t72 sky130_fd_pr__nfet_01v8 ad=0.169 pd=1.82 as=0.08775 ps=0.92 w=0.65 l=0.15
X87 x4.x3.Y x4.x1.Y VDD.t49 VDD.t48 sky130_fd_pr__pfet_01v8_hvt ad=0.135 pd=1.27 as=0.26 ps=2.52 w=1 l=0.15
X88 GND.t105 B[3].t2 a_2447_415# GND.t104 sky130_fd_pr__nfet_01v8 ad=0.169 pd=1.82 as=0.08775 ps=0.92 w=0.65 l=0.15
X89 a_2365_735# x3.x5.Y GND.t25 GND.t24 sky130_fd_pr__nfet_01v8 ad=0.08775 pd=0.92 as=0.169 ps=1.82 w=0.65 l=0.15
X90 a_791_415# x4.x5.Y x4.x7.Y GND.t18 sky130_fd_pr__nfet_01v8 ad=0.08775 pd=0.92 as=0.169 ps=1.82 w=0.65 l=0.15
X91 a_2089_2015# x1.x7.Y GND.t8 GND.t7 sky130_fd_pr__nfet_01v8 ad=0.08775 pd=0.92 as=0.169 ps=1.82 w=0.65 l=0.15
X92 x2.x3.Y x2.x1.Y VDD.t5 VDD.t4 sky130_fd_pr__pfet_01v8_hvt ad=0.135 pd=1.27 as=0.26 ps=2.52 w=1 l=0.15
X93 VDD.t103 A[0].t3 x1.x1.Y VDD.t102 sky130_fd_pr__pfet_01v8_hvt ad=0.26 pd=2.52 as=0.135 ps=1.27 w=1 l=0.15
X94 Sum[3].t1 x4.x6.Y VDD.t109 VDD.t108 sky130_fd_pr__pfet_01v8_hvt ad=0.135 pd=1.27 as=0.26 ps=2.52 w=1 l=0.15
X95 a_1067_415# x4.x4.Y x4.x6.Y GND.t41 sky130_fd_pr__nfet_01v8 ad=0.08775 pd=0.92 as=0.169 ps=1.82 w=0.65 l=0.15
X96 GND.t85 x4.x7.Y a_515_415# GND.t84 sky130_fd_pr__nfet_01v8 ad=0.169 pd=1.82 as=0.08775 ps=0.92 w=0.65 l=0.15
X97 VDD.t27 x3.x5.Y x3.x7.Y VDD.t26 sky130_fd_pr__pfet_01v8_hvt ad=0.26 pd=2.52 as=0.135 ps=1.27 w=1 l=0.15
X98 a_1813_2015# Cin.t0 GND.t101 GND.t100 sky130_fd_pr__nfet_01v8 ad=0.08775 pd=0.92 as=0.169 ps=1.82 w=0.65 l=0.15
X99 x4.x7.Y x4.x5.Y VDD.t21 VDD.t20 sky130_fd_pr__pfet_01v8_hvt ad=0.135 pd=1.27 as=0.26 ps=2.52 w=1 l=0.15
X100 x3.x1.Y B[2].t3 VDD.t127 VDD.t126 sky130_fd_pr__pfet_01v8_hvt ad=0.135 pd=1.27 as=0.26 ps=2.52 w=1 l=0.15
X101 VDD.t71 x2.Cin x2.x7.Y VDD.t70 sky130_fd_pr__pfet_01v8_hvt ad=0.26 pd=2.52 as=0.135 ps=1.27 w=1 l=0.15
X102 GND.t89 B[1].t2 a_2447_1695# GND.t88 sky130_fd_pr__nfet_01v8 ad=0.169 pd=1.82 as=0.08775 ps=0.92 w=0.65 l=0.15
X103 VDD.t13 x1.x5.Y x1.x7.Y VDD.t12 sky130_fd_pr__pfet_01v8_hvt ad=0.26 pd=2.52 as=0.135 ps=1.27 w=1 l=0.15
X104 GND.t40 x4.x1.Y a_2171_415# GND.t39 sky130_fd_pr__nfet_01v8 ad=0.169 pd=1.82 as=0.08775 ps=0.92 w=0.65 l=0.15
X105 GND.t17 x4.x5.Y a_239_415# GND.t16 sky130_fd_pr__nfet_01v8 ad=0.169 pd=1.82 as=0.08775 ps=0.92 w=0.65 l=0.15
X106 a_2089_735# x3.x7.Y GND.t36 GND.t35 sky130_fd_pr__nfet_01v8 ad=0.08775 pd=0.92 as=0.169 ps=1.82 w=0.65 l=0.15
X107 x1.x3.Y x1.x1.Y a_709_2015# GND.t49 sky130_fd_pr__nfet_01v8 ad=0.169 pd=1.82 as=0.08775 ps=0.92 w=0.65 l=0.15
X108 a_2447_415# A[3].t2 x4.x1.Y GND.t97 sky130_fd_pr__nfet_01v8 ad=0.08775 pd=0.92 as=0.169 ps=1.82 w=0.65 l=0.15
X109 VDD.t35 x3.x4.Y x3.x6.Y VDD.t34 sky130_fd_pr__pfet_01v8_hvt ad=0.26 pd=2.52 as=0.135 ps=1.27 w=1 l=0.15
X110 x1.x4.Y x1.x3.Y VDD.t91 VDD.t90 sky130_fd_pr__pfet_01v8_hvt ad=0.135 pd=1.27 as=0.26 ps=2.52 w=1 l=0.15
X111 a_515_415# x4.x6.Y Sum[3].t0 GND.t79 sky130_fd_pr__nfet_01v8 ad=0.08775 pd=0.92 as=0.169 ps=1.82 w=0.65 l=0.15
X112 x3.x7.Y x3.Cin VDD.t113 VDD.t112 sky130_fd_pr__pfet_01v8_hvt ad=0.135 pd=1.27 as=0.26 ps=2.52 w=1 l=0.15
X113 x2.x4.Y x2.x2.Y VDD.t77 VDD.t76 sky130_fd_pr__pfet_01v8_hvt ad=0.135 pd=1.27 as=0.26 ps=2.52 w=1 l=0.15
X114 GND.t60 x2.x5.Y a_239_1695# GND.t59 sky130_fd_pr__nfet_01v8 ad=0.169 pd=1.82 as=0.08775 ps=0.92 w=0.65 l=0.15
X115 a_2171_415# A[3].t3 x4.x2.Y GND.t96 sky130_fd_pr__nfet_01v8 ad=0.08775 pd=0.92 as=0.169 ps=1.82 w=0.65 l=0.15
X116 VDD.t19 x2.x7.Y Sum[1].t0 VDD.t18 sky130_fd_pr__pfet_01v8_hvt ad=0.26 pd=2.52 as=0.135 ps=1.27 w=1 l=0.15
X117 GND.t6 x2.x1.Y a_2171_1695# GND.t5 sky130_fd_pr__nfet_01v8 ad=0.169 pd=1.82 as=0.08775 ps=0.92 w=0.65 l=0.15
X118 x1.x2.Y A[0].t0 a_433_2015# GND.t74 sky130_fd_pr__nfet_01v8 ad=0.169 pd=1.82 as=0.08775 ps=0.92 w=0.65 l=0.15
X119 VDD.t25 x4.x5.Y x4.x6.Y VDD.t24 sky130_fd_pr__pfet_01v8_hvt ad=0.26 pd=2.52 as=0.135 ps=1.27 w=1 l=0.15
X120 x1.x3.Y B[0].t2 VDD.t107 VDD.t106 sky130_fd_pr__pfet_01v8_hvt ad=0.135 pd=1.27 as=0.26 ps=2.52 w=1 l=0.15
X121 VDD.t137 B[3].t1 x4.x3.Y VDD.t136 sky130_fd_pr__pfet_01v8_hvt ad=0.26 pd=2.52 as=0.135 ps=1.27 w=1 l=0.15
X122 x2.Cin x1.x1.Y a_2365_2015# GND.t50 sky130_fd_pr__nfet_01v8 ad=0.169 pd=1.82 as=0.08775 ps=0.92 w=0.65 l=0.15
X123 x3.x1.Y A[2].t1 a_157_735# GND.t106 sky130_fd_pr__nfet_01v8 ad=0.169 pd=1.82 as=0.08775 ps=0.92 w=0.65 l=0.15
X124 x2.x5.Y x2.x4.Y VDD.t81 VDD.t80 sky130_fd_pr__pfet_01v8_hvt ad=0.135 pd=1.27 as=0.26 ps=2.52 w=1 l=0.15
X125 x2.x2.Y A[1].t1 VDD.t123 VDD.t122 sky130_fd_pr__pfet_01v8_hvt ad=0.135 pd=1.27 as=0.26 ps=2.52 w=1 l=0.15
X126 a_433_735# x3.x1.Y GND.t32 GND.t31 sky130_fd_pr__nfet_01v8 ad=0.08775 pd=0.92 as=0.169 ps=1.82 w=0.65 l=0.15
X127 a_1261_2015# Cin.t1 GND.t99 GND.t98 sky130_fd_pr__nfet_01v8 ad=0.08775 pd=0.92 as=0.169 ps=1.82 w=0.65 l=0.15
X128 x4.x2.Y A[3].t1 VDD.t131 VDD.t130 sky130_fd_pr__pfet_01v8_hvt ad=0.135 pd=1.27 as=0.26 ps=2.52 w=1 l=0.15
X129 VDD.t115 x4.x7.Y Sum[3].t2 VDD.t114 sky130_fd_pr__pfet_01v8_hvt ad=0.26 pd=2.52 as=0.135 ps=1.27 w=1 l=0.15
X130 VDD.t97 x4.Cin x4.x7.Y VDD.t96 sky130_fd_pr__pfet_01v8_hvt ad=0.26 pd=2.52 as=0.135 ps=1.27 w=1 l=0.15
X131 a_239_1695# x2.x1.Y x3.Cin GND.t3 sky130_fd_pr__nfet_01v8 ad=0.08775 pd=0.92 as=0.169 ps=1.82 w=0.65 l=0.15
X132 VDD.t59 x1.x4.Y x1.x5.Y VDD.t58 sky130_fd_pr__pfet_01v8_hvt ad=0.26 pd=2.52 as=0.135 ps=1.27 w=1 l=0.15
X133 VDD.t89 x1.x6.Y Sum[0].t2 VDD.t88 sky130_fd_pr__pfet_01v8_hvt ad=0.26 pd=2.52 as=0.135 ps=1.27 w=1 l=0.15
X134 x1.x1.Y A[0].t1 a_157_2015# GND.t73 sky130_fd_pr__nfet_01v8 ad=0.169 pd=1.82 as=0.08775 ps=0.92 w=0.65 l=0.15
X135 GND.t2 x2.x3.Y a_1619_1695# GND.t1 sky130_fd_pr__nfet_01v8 ad=0.169 pd=1.82 as=0.08775 ps=0.92 w=0.65 l=0.15
X136 x3.x7.Y x3.x5.Y a_1813_735# GND.t23 sky130_fd_pr__nfet_01v8 ad=0.169 pd=1.82 as=0.08775 ps=0.92 w=0.65 l=0.15
X137 x1.x2.Y x1.x1.Y VDD.t65 VDD.t64 sky130_fd_pr__pfet_01v8_hvt ad=0.135 pd=1.27 as=0.26 ps=2.52 w=1 l=0.15
X138 a_791_1695# x2.x5.Y x2.x7.Y GND.t61 sky130_fd_pr__nfet_01v8 ad=0.08775 pd=0.92 as=0.169 ps=1.82 w=0.65 l=0.15
X139 VDD.t117 B[1].t1 x2.x3.Y VDD.t116 sky130_fd_pr__pfet_01v8_hvt ad=0.26 pd=2.52 as=0.135 ps=1.27 w=1 l=0.15
X140 x2.x6.Y x2.x4.Y VDD.t79 VDD.t78 sky130_fd_pr__pfet_01v8_hvt ad=0.135 pd=1.27 as=0.26 ps=2.52 w=1 l=0.15
X141 a_157_735# B[2].t1 GND.t95 GND.t94 sky130_fd_pr__nfet_01v8 ad=0.08775 pd=0.92 as=0.169 ps=1.82 w=0.65 l=0.15
X142 x1.x7.Y x1.x5.Y a_1813_2015# GND.t11 sky130_fd_pr__nfet_01v8 ad=0.169 pd=1.82 as=0.08775 ps=0.92 w=0.65 l=0.15
X143 x3.x6.Y x3.x4.Y a_1537_735# GND.t27 sky130_fd_pr__nfet_01v8 ad=0.169 pd=1.82 as=0.08775 ps=0.92 w=0.65 l=0.15
R0 Sum[3].t0 Sum[3].n0 271.668
R1 Sum[3].n3 Sum[3].t0 258.846
R2 Sum[3] Sum[3].n1 224.778
R3 Sum[3].n1 Sum[3].t2 26.5955
R4 Sum[3].n1 Sum[3].t1 26.5955
R5 Sum[3].n0 Sum[3] 11.6358
R6 Sum[3].n2 Sum[3] 3.76521
R7 Sum[3].n3 Sum[3].n2 3.03935
R8 Sum[3] Sum[3].n3 2.30266
R9 Sum[3].n2 Sum[3] 0.921363
R10 Sum[3] Sum[3].n0 0.368845
R11 Cout.n3 Cout.n2 192.982
R12 Cout.n0 Cout.t2 132.067
R13 Cout Cout.n3 31.7962
R14 Cout.n2 Cout.t0 26.5955
R15 Cout.n2 Cout.t1 26.5955
R16 Cout.n3 Cout 20.4254
R17 Cout.n1 Cout.n0 4.15748
R18 Cout Cout.n1 3.76521
R19 Cout.n0 Cout 1.17559
R20 Cout.n1 Cout 0.921363
R21 A[3].n1 A[3].t0 230.155
R22 A[3].n0 A[3].t1 230.155
R23 A[3].n1 A[3].t2 157.856
R24 A[3].n0 A[3].t3 157.856
R25 A[3].n2 A[3].n1 152
R26 A[3].n4 A[3].n0 152
R27 A[3].n4 A[3].n3 10.8525
R28 A[3].n3 A[3].n2 9.62931
R29 A[3].n2 A[3] 6.4005
R30 A[3] A[3].n4 6.4005
R31 A[3].n3 A[3] 1.17014
R32 B[3].n0 B[3].t0 229.369
R33 B[3].n3 B[3].t1 229.369
R34 B[3].n0 B[3].t2 157.07
R35 B[3].n3 B[3].t3 157.07
R36 B[3].n1 B[3].n0 152
R37 B[3].n4 B[3].n3 152
R38 B[3].n4 B[3].n2 21.271
R39 B[3].n2 B[3].n1 9.87363
R40 B[3].n1 B[3] 4.39453
R41 B[3] B[3].n4 4.39453
R42 B[3].n2 B[3] 0.299328
R43 Sum[2] Sum[2].n0 237.577
R44 Sum[2].n1 Sum[2].t2 139.514
R45 Sum[2].n0 Sum[2].t1 26.5955
R46 Sum[2].n0 Sum[2].t0 26.5955
R47 Sum[2].n2 Sum[2] 16.5652
R48 Sum[2].n1 Sum[2] 11.6179
R49 Sum[2].n2 Sum[2] 9.03579
R50 Sum[2] Sum[2].n2 1.72748
R51 Sum[2].n2 Sum[2].n1 1.01637
R52 A[2].n0 A[2].t3 230.155
R53 A[2].n3 A[2].t2 230.155
R54 A[2].n0 A[2].t1 157.856
R55 A[2].n3 A[2].t0 157.856
R56 A[2].n1 A[2].n0 152
R57 A[2].n4 A[2].n3 152
R58 A[2].n4 A[2].n2 11.0436
R59 A[2].n2 A[2].n1 9.82035
R60 A[2].n1 A[2] 2.10199
R61 A[2] A[2].n4 2.10199
R62 A[2].n2 A[2] 1.188
R63 B[2].n1 B[2].t3 229.369
R64 B[2].n0 B[2].t2 229.369
R65 B[2].n1 B[2].t1 157.07
R66 B[2].n0 B[2].t0 157.07
R67 B[2].n2 B[2].n1 154.845
R68 B[2].n4 B[2].n0 152
R69 B[2].n4 B[2].n3 20.6978
R70 B[2].n3 B[2].n2 9.3005
R71 B[2] B[2].n4 5.92643
R72 B[2].n2 B[2] 3.08198
R73 B[2].n3 B[2] 0.317185
R74 Sum[1].t2 Sum[1].n0 271.668
R75 Sum[1].n3 Sum[1].t2 258.846
R76 Sum[1] Sum[1].n1 224.778
R77 Sum[1].n1 Sum[1].t0 26.5955
R78 Sum[1].n1 Sum[1].t1 26.5955
R79 Sum[1].n0 Sum[1] 11.6358
R80 Sum[1].n2 Sum[1] 3.76521
R81 Sum[1].n3 Sum[1].n2 3.03935
R82 Sum[1] Sum[1].n3 2.30266
R83 Sum[1].n2 Sum[1] 0.921363
R84 Sum[1] Sum[1].n0 0.368845
R85 A[1].n1 A[1].t0 230.155
R86 A[1].n0 A[1].t1 230.155
R87 A[1].n1 A[1].t2 157.856
R88 A[1].n0 A[1].t3 157.856
R89 A[1].n2 A[1].n1 152
R90 A[1].n4 A[1].n0 152
R91 A[1].n4 A[1].n3 10.8525
R92 A[1].n3 A[1].n2 9.62931
R93 A[1].n2 A[1] 6.4005
R94 A[1] A[1].n4 6.4005
R95 A[1].n3 A[1] 1.17014
R96 B[1].n0 B[1].t0 229.369
R97 B[1].n3 B[1].t1 229.369
R98 B[1].n0 B[1].t2 157.07
R99 B[1].n3 B[1].t3 157.07
R100 B[1].n1 B[1].n0 152
R101 B[1].n4 B[1].n3 152
R102 B[1].n4 B[1].n2 21.271
R103 B[1].n2 B[1].n1 9.87363
R104 B[1].n1 B[1] 4.39453
R105 B[1] B[1].n4 4.39453
R106 B[1].n2 B[1] 0.299328
R107 Sum[0] Sum[0].n0 237.577
R108 Sum[0].n1 Sum[0].t1 139.514
R109 Sum[0].n0 Sum[0].t2 26.5955
R110 Sum[0].n0 Sum[0].t0 26.5955
R111 Sum[0].n2 Sum[0] 16.5652
R112 Sum[0].n1 Sum[0] 11.6179
R113 Sum[0].n2 Sum[0] 9.03579
R114 Sum[0] Sum[0].n2 1.72748
R115 Sum[0].n2 Sum[0].n1 1.01637
R116 Cin.n1 Cin.t3 229.369
R117 Cin.n0 Cin.t2 229.369
R118 Cin.n1 Cin.t1 157.07
R119 Cin.n0 Cin.t0 157.07
R120 Cin.n2 Cin.n1 152.475
R121 Cin.n4 Cin.n0 152
R122 Cin.n4 Cin.n3 16.115
R123 Cin.n3 Cin.n2 13.8025
R124 Cin.n3 Cin 5.99157
R125 Cin Cin.n4 5.92643
R126 Cin.n2 Cin 5.45235
R127 A[0].n0 A[0].t3 230.155
R128 A[0].n3 A[0].t2 230.155
R129 A[0].n0 A[0].t1 157.856
R130 A[0].n3 A[0].t0 157.856
R131 A[0].n1 A[0].n0 152
R132 A[0].n4 A[0].n3 152
R133 A[0].n4 A[0].n2 11.0436
R134 A[0].n2 A[0].n1 9.82035
R135 A[0].n1 A[0] 2.10199
R136 A[0] A[0].n4 2.10199
R137 A[0].n2 A[0] 1.188
R138 B[0].n1 B[0].t3 229.369
R139 B[0].n0 B[0].t2 229.369
R140 B[0].n1 B[0].t1 157.07
R141 B[0].n0 B[0].t0 157.07
R142 B[0].n2 B[0].n1 154.845
R143 B[0].n4 B[0].n0 152
R144 B[0].n4 B[0].n3 20.6978
R145 B[0].n3 B[0].n2 9.3005
R146 B[0] B[0].n4 5.92643
R147 B[0].n2 B[0] 3.08198
R148 B[0].n3 B[0] 0.317185
R149 VDD.n83 VDD.t66 627.449
R150 VDD.n206 VDD.t50 627.449
R151 VDD VDD.t128 461.683
R152 VDD VDD.t130 461.683
R153 VDD VDD.t48 461.683
R154 VDD VDD.t74 461.683
R155 VDD VDD.t56 461.683
R156 VDD VDD.t54 461.683
R157 VDD VDD.t20 461.683
R158 VDD VDD.t108 461.683
R159 VDD VDD.t88 361.06
R160 VDD VDD.t12 361.06
R161 VDD VDD.t60 361.06
R162 VDD VDD.t58 361.06
R163 VDD VDD.t0 361.06
R164 VDD VDD.t68 361.06
R165 VDD VDD.t100 361.06
R166 VDD VDD.t102 361.06
R167 VDD.n3 VDD.t143 249.363
R168 VDD.n6 VDD.t141 249.363
R169 VDD.n112 VDD.t43 249.363
R170 VDD.n46 VDD.t37 249.363
R171 VDD.n42 VDD.t33 249.363
R172 VDD.n38 VDD.t35 249.363
R173 VDD.n37 VDD.t27 249.363
R174 VDD.n161 VDD.t99 249.363
R175 VDD.n1 VDD.t45 249.363
R176 VDD.n57 VDD.t103 249.363
R177 VDD.n62 VDD.t101 249.363
R178 VDD.n49 VDD.t69 249.363
R179 VDD.n105 VDD.t1 249.363
R180 VDD.n71 VDD.t59 249.363
R181 VDD.n97 VDD.t61 249.363
R182 VDD.n78 VDD.t13 249.363
R183 VDD.n89 VDD.t89 249.363
R184 VDD.n82 VDD.t67 249.363
R185 VDD.n156 VDD.t121 249.362
R186 VDD.n153 VDD.t123 249.362
R187 VDD.n32 VDD.t5 249.362
R188 VDD.n39 VDD.t77 249.362
R189 VDD.n43 VDD.t81 249.362
R190 VDD.n47 VDD.t79 249.362
R191 VDD.n8 VDD.t83 249.362
R192 VDD.n5 VDD.t93 249.362
R193 VDD.n2 VDD.t7 249.362
R194 VDD.n166 VDD.t129 249.362
R195 VDD.n19 VDD.t131 249.362
R196 VDD.n18 VDD.t49 249.362
R197 VDD.n16 VDD.t75 249.362
R198 VDD.n15 VDD.t57 249.362
R199 VDD.n13 VDD.t55 249.362
R200 VDD.n12 VDD.t21 249.362
R201 VDD.n212 VDD.t109 249.362
R202 VDD.n205 VDD.t51 249.362
R203 VDD.t66 VDD.t16 248.599
R204 VDD.t88 VDD.t10 248.599
R205 VDD.t12 VDD.t132 248.599
R206 VDD.t60 VDD.t14 248.599
R207 VDD.t58 VDD.t134 248.599
R208 VDD.t0 VDD.t90 248.599
R209 VDD.t68 VDD.t106 248.599
R210 VDD.t100 VDD.t64 248.599
R211 VDD.t102 VDD.t104 248.599
R212 VDD.t128 VDD.t138 248.599
R213 VDD.t130 VDD.t52 248.599
R214 VDD.t48 VDD.t136 248.599
R215 VDD.t74 VDD.t62 248.599
R216 VDD.t56 VDD.t94 248.599
R217 VDD.t54 VDD.t24 248.599
R218 VDD.t20 VDD.t96 248.599
R219 VDD.t108 VDD.t114 248.599
R220 VDD.t50 VDD.t22 248.599
R221 VDD.n234 VDD.t127 247.394
R222 VDD.n225 VDD.t41 247.394
R223 VDD.n115 VDD.t125 247.394
R224 VDD.n123 VDD.t39 247.394
R225 VDD.n131 VDD.t111 247.394
R226 VDD.n139 VDD.t29 247.394
R227 VDD.n147 VDD.t113 247.394
R228 VDD.n36 VDD.t47 247.394
R229 VDD.n160 VDD.t31 247.394
R230 VDD.n58 VDD.t65 247.394
R231 VDD.n63 VDD.t107 247.394
R232 VDD.n68 VDD.t91 247.394
R233 VDD.n104 VDD.t135 247.394
R234 VDD.n99 VDD.t15 247.394
R235 VDD.n96 VDD.t133 247.394
R236 VDD.n91 VDD.t11 247.394
R237 VDD.n88 VDD.t17 247.394
R238 VDD.n26 VDD.t119 247.394
R239 VDD.n155 VDD.t9 247.394
R240 VDD.n152 VDD.t117 247.394
R241 VDD.n144 VDD.t3 247.394
R242 VDD.n136 VDD.t73 247.394
R243 VDD.n128 VDD.t87 247.394
R244 VDD.n120 VDD.t71 247.394
R245 VDD.n219 VDD.t19 247.394
R246 VDD.n228 VDD.t85 247.394
R247 VDD.n168 VDD.t139 247.394
R248 VDD.n173 VDD.t53 247.394
R249 VDD.n178 VDD.t137 247.394
R250 VDD.n183 VDD.t63 247.394
R251 VDD.n188 VDD.t95 247.394
R252 VDD.n193 VDD.t25 247.394
R253 VDD.n198 VDD.t97 247.394
R254 VDD.n203 VDD.t115 247.394
R255 VDD.n211 VDD.t23 247.394
R256 VDD.n53 VDD.t105 247.393
R257 VDD.n239 VDD 244.69
R258 VDD.n238 VDD.n237 213.119
R259 VDD.t16 VDD 207.166
R260 VDD.t10 VDD 207.166
R261 VDD.t132 VDD 207.166
R262 VDD.t14 VDD 207.166
R263 VDD.t134 VDD 207.166
R264 VDD.t90 VDD 207.166
R265 VDD.t106 VDD 207.166
R266 VDD.t64 VDD 207.166
R267 VDD.t104 VDD 207.166
R268 VDD.t118 VDD.t44 117.674
R269 VDD.t120 VDD.t30 117.674
R270 VDD.t8 VDD.t98 117.674
R271 VDD.t122 VDD.t46 117.674
R272 VDD.t116 VDD.t26 117.674
R273 VDD.t4 VDD.t112 117.674
R274 VDD.t2 VDD.t34 117.674
R275 VDD.t76 VDD.t28 117.674
R276 VDD.t72 VDD.t32 117.674
R277 VDD.t80 VDD.t110 117.674
R278 VDD.t86 VDD.t36 117.674
R279 VDD.t78 VDD.t38 117.674
R280 VDD.t70 VDD.t42 117.674
R281 VDD.t82 VDD.t124 117.674
R282 VDD.t18 VDD.t140 117.674
R283 VDD.t92 VDD.t40 117.674
R284 VDD.t84 VDD.t142 117.674
R285 VDD.t6 VDD.t126 117.674
R286 VDD.t138 VDD 106.543
R287 VDD.t52 VDD 106.543
R288 VDD.t136 VDD 106.543
R289 VDD.t62 VDD 106.543
R290 VDD.t94 VDD 106.543
R291 VDD.t24 VDD 106.543
R292 VDD.t96 VDD 106.543
R293 VDD.t114 VDD 106.543
R294 VDD.t22 VDD 106.543
R295 VDD.t30 VDD 100.454
R296 VDD.t46 VDD 100.454
R297 VDD.t112 VDD 100.454
R298 VDD.t28 VDD 100.454
R299 VDD.t110 VDD 100.454
R300 VDD.t38 VDD 100.454
R301 VDD.t124 VDD 100.454
R302 VDD.t40 VDD 100.454
R303 VDD.t126 VDD.n238 83.2331
R304 VDD VDD.t118 51.6621
R305 VDD VDD.t8 51.6621
R306 VDD VDD.t116 51.6621
R307 VDD VDD.t2 51.6621
R308 VDD VDD.t72 51.6621
R309 VDD VDD.t86 51.6621
R310 VDD VDD.t70 51.6621
R311 VDD VDD.t18 51.6621
R312 VDD VDD.t84 51.6621
R313 VDD.n156 VDD.n27 25.977
R314 VDD.n154 VDD.n153 25.977
R315 VDD.n151 VDD.n32 25.977
R316 VDD.n143 VDD.n39 25.977
R317 VDD.n135 VDD.n43 25.977
R318 VDD.n127 VDD.n47 25.977
R319 VDD.n119 VDD.n8 25.977
R320 VDD.n220 VDD.n5 25.977
R321 VDD.n229 VDD.n2 25.977
R322 VDD.n233 VDD.n3 25.977
R323 VDD.n224 VDD.n6 25.977
R324 VDD.n116 VDD.n112 25.977
R325 VDD.n124 VDD.n46 25.977
R326 VDD.n132 VDD.n42 25.977
R327 VDD.n140 VDD.n38 25.977
R328 VDD.n148 VDD.n37 25.977
R329 VDD.n161 VDD.n22 25.977
R330 VDD.n159 VDD.n1 25.977
R331 VDD.n57 VDD.n52 25.977
R332 VDD.n62 VDD.n51 25.977
R333 VDD.n64 VDD.n49 25.977
R334 VDD.n105 VDD.n69 25.977
R335 VDD.n103 VDD.n71 25.977
R336 VDD.n98 VDD.n97 25.977
R337 VDD.n95 VDD.n78 25.977
R338 VDD.n90 VDD.n89 25.977
R339 VDD.n87 VDD.n82 25.977
R340 VDD.n169 VDD.n166 25.977
R341 VDD.n174 VDD.n19 25.977
R342 VDD.n179 VDD.n18 25.977
R343 VDD.n184 VDD.n16 25.977
R344 VDD.n189 VDD.n15 25.977
R345 VDD.n194 VDD.n13 25.977
R346 VDD.n199 VDD.n12 25.977
R347 VDD.n213 VDD.n212 25.977
R348 VDD.n210 VDD.n205 25.977
R349 VDD.n27 VDD.n26 24.4711
R350 VDD.n155 VDD.n154 24.4711
R351 VDD.n152 VDD.n151 24.4711
R352 VDD.n144 VDD.n143 24.4711
R353 VDD.n136 VDD.n135 24.4711
R354 VDD.n128 VDD.n127 24.4711
R355 VDD.n120 VDD.n119 24.4711
R356 VDD.n220 VDD.n219 24.4711
R357 VDD.n229 VDD.n228 24.4711
R358 VDD.n234 VDD.n233 24.4711
R359 VDD.n225 VDD.n224 24.4711
R360 VDD.n116 VDD.n115 24.4711
R361 VDD.n124 VDD.n123 24.4711
R362 VDD.n132 VDD.n131 24.4711
R363 VDD.n140 VDD.n139 24.4711
R364 VDD.n148 VDD.n147 24.4711
R365 VDD.n36 VDD.n22 24.4711
R366 VDD.n160 VDD.n159 24.4711
R367 VDD.n53 VDD.n52 24.4711
R368 VDD.n58 VDD.n51 24.4711
R369 VDD.n64 VDD.n63 24.4711
R370 VDD.n69 VDD.n68 24.4711
R371 VDD.n104 VDD.n103 24.4711
R372 VDD.n99 VDD.n98 24.4711
R373 VDD.n96 VDD.n95 24.4711
R374 VDD.n91 VDD.n90 24.4711
R375 VDD.n88 VDD.n87 24.4711
R376 VDD.n169 VDD.n168 24.4711
R377 VDD.n174 VDD.n173 24.4711
R378 VDD.n179 VDD.n178 24.4711
R379 VDD.n184 VDD.n183 24.4711
R380 VDD.n189 VDD.n188 24.4711
R381 VDD.n194 VDD.n193 24.4711
R382 VDD.n199 VDD.n198 24.4711
R383 VDD.n213 VDD.n203 24.4711
R384 VDD.n211 VDD.n210 24.4711
R385 VDD.n238 VDD 17.221
R386 VDD.n156 VDD.n155 12.8005
R387 VDD.n153 VDD.n152 12.8005
R388 VDD.n144 VDD.n32 12.8005
R389 VDD.n136 VDD.n39 12.8005
R390 VDD.n128 VDD.n43 12.8005
R391 VDD.n120 VDD.n47 12.8005
R392 VDD.n219 VDD.n8 12.8005
R393 VDD.n228 VDD.n5 12.8005
R394 VDD.n237 VDD.n2 12.8005
R395 VDD.n225 VDD.n3 12.8005
R396 VDD.n115 VDD.n6 12.8005
R397 VDD.n123 VDD.n112 12.8005
R398 VDD.n131 VDD.n46 12.8005
R399 VDD.n139 VDD.n42 12.8005
R400 VDD.n147 VDD.n38 12.8005
R401 VDD.n37 VDD.n36 12.8005
R402 VDD.n161 VDD.n160 12.8005
R403 VDD.n239 VDD.n1 12.8005
R404 VDD.n58 VDD.n57 12.8005
R405 VDD.n63 VDD.n62 12.8005
R406 VDD.n68 VDD.n49 12.8005
R407 VDD.n105 VDD.n104 12.8005
R408 VDD.n99 VDD.n71 12.8005
R409 VDD.n97 VDD.n96 12.8005
R410 VDD.n91 VDD.n78 12.8005
R411 VDD.n89 VDD.n88 12.8005
R412 VDD.n83 VDD.n82 12.8005
R413 VDD.n173 VDD.n166 12.8005
R414 VDD.n178 VDD.n19 12.8005
R415 VDD.n183 VDD.n18 12.8005
R416 VDD.n188 VDD.n16 12.8005
R417 VDD.n193 VDD.n15 12.8005
R418 VDD.n198 VDD.n13 12.8005
R419 VDD.n203 VDD.n12 12.8005
R420 VDD.n212 VDD.n211 12.8005
R421 VDD.n206 VDD.n205 12.8005
R422 VDD.n207 VDD.n206 9.3005
R423 VDD.n168 VDD.n167 9.3005
R424 VDD.n170 VDD.n169 9.3005
R425 VDD.n171 VDD.n166 9.3005
R426 VDD.n173 VDD.n172 9.3005
R427 VDD.n175 VDD.n174 9.3005
R428 VDD.n176 VDD.n19 9.3005
R429 VDD.n178 VDD.n177 9.3005
R430 VDD.n180 VDD.n179 9.3005
R431 VDD.n181 VDD.n18 9.3005
R432 VDD.n183 VDD.n182 9.3005
R433 VDD.n185 VDD.n184 9.3005
R434 VDD.n186 VDD.n16 9.3005
R435 VDD.n188 VDD.n187 9.3005
R436 VDD.n190 VDD.n189 9.3005
R437 VDD.n191 VDD.n15 9.3005
R438 VDD.n193 VDD.n192 9.3005
R439 VDD.n195 VDD.n194 9.3005
R440 VDD.n196 VDD.n13 9.3005
R441 VDD.n198 VDD.n197 9.3005
R442 VDD.n200 VDD.n199 9.3005
R443 VDD.n201 VDD.n12 9.3005
R444 VDD.n203 VDD.n202 9.3005
R445 VDD.n214 VDD.n213 9.3005
R446 VDD.n212 VDD.n11 9.3005
R447 VDD.n211 VDD.n204 9.3005
R448 VDD.n210 VDD.n209 9.3005
R449 VDD.n208 VDD.n205 9.3005
R450 VDD.n84 VDD.n83 9.3005
R451 VDD.n85 VDD.n82 9.3005
R452 VDD.n87 VDD.n86 9.3005
R453 VDD.n88 VDD.n81 9.3005
R454 VDD.n89 VDD.n80 9.3005
R455 VDD.n90 VDD.n79 9.3005
R456 VDD.n92 VDD.n91 9.3005
R457 VDD.n93 VDD.n78 9.3005
R458 VDD.n95 VDD.n94 9.3005
R459 VDD.n96 VDD.n77 9.3005
R460 VDD.n97 VDD.n73 9.3005
R461 VDD.n98 VDD.n72 9.3005
R462 VDD.n100 VDD.n99 9.3005
R463 VDD.n101 VDD.n71 9.3005
R464 VDD.n103 VDD.n102 9.3005
R465 VDD.n104 VDD.n70 9.3005
R466 VDD.n106 VDD.n105 9.3005
R467 VDD.n69 VDD.n48 9.3005
R468 VDD.n68 VDD.n67 9.3005
R469 VDD.n66 VDD.n49 9.3005
R470 VDD.n65 VDD.n64 9.3005
R471 VDD.n63 VDD.n50 9.3005
R472 VDD.n62 VDD.n61 9.3005
R473 VDD.n60 VDD.n51 9.3005
R474 VDD.n59 VDD.n58 9.3005
R475 VDD.n57 VDD.n56 9.3005
R476 VDD.n55 VDD.n52 9.3005
R477 VDD.n54 VDD.n53 9.3005
R478 VDD.n240 VDD.n239 9.3005
R479 VDD.n24 VDD.n1 9.3005
R480 VDD.n159 VDD.n158 9.3005
R481 VDD.n160 VDD.n23 9.3005
R482 VDD.n162 VDD.n161 9.3005
R483 VDD.n29 VDD.n22 9.3005