* NGSPICE file created from zlc_16bit.ext - technology: sky130A

.subckt zlc_16bit Y[4] Y[3] Y[2] Y[1] Y[0] A[15] A[12] A[13] A[14] A[11] A[8] A[9]
+ A[10] A[6] A[5] A[4] A[7] A[2] A[1] A[0] A[3] VDD GND
X0 VDD.t94 a_1143_n2463# a_1173_n2110# VDD.t93 sky130_fd_pr__pfet_01v8_hvt ad=0.0693 pd=0.75 as=0.0441 ps=0.63 w=0.42 l=0.15
X1 a_2370_n2285# x13.A0 a_2512_n2110# VDD.t39 sky130_fd_pr__pfet_01v8_hvt ad=0.1932 pd=1.34 as=0.07665 ps=0.785 w=0.42 l=0.15
X2 x4.x8.X a_2830_n4755# GND.t109 GND.t108 sky130_fd_pr__nfet_01v8 ad=0.169 pd=1.82 as=0.10025 ps=0.985 w=0.65 l=0.15
X3 a_2580_n477# x11.B a_2498_n477# VDD.t110 sky130_fd_pr__pfet_01v8_hvt ad=0.0441 pd=0.63 as=0.1092 ps=1.36 w=0.42 l=0.15
X4 a_898_n1355# A[8].t2 GND.t166 GND.t165 sky130_fd_pr__nfet_01v8 ad=0.0567 pd=0.69 as=0.1092 ps=1.36 w=0.42 l=0.15
X5 a_856_n2110# Y[3].t9 VDD.t202 VDD.t201 sky130_fd_pr__pfet_01v8_hvt ad=0.07665 pd=0.785 as=0.15835 ps=1.395 w=0.42 l=0.15
X6 a_1139_n727# x2.Z[2] a_1067_n727# GND.t62 sky130_fd_pr__nfet_01v8 ad=0.0441 pd=0.63 as=0.0441 ps=0.63 w=0.42 l=0.15
X7 GND.t36 x4.Z[2] x9.Y GND.t35 sky130_fd_pr__nfet_01v8 ad=0.169 pd=1.82 as=0.169 ps=1.82 w=0.65 l=0.15
X8 a_714_n2285# x13.X a_856_n2110# VDD.t95 sky130_fd_pr__pfet_01v8_hvt ad=0.1932 pd=1.34 as=0.07665 ps=0.785 w=0.42 l=0.15
X9 VDD.t253 A[0].t1 a_2361_n4977# VDD.t252 sky130_fd_pr__pfet_01v8_hvt ad=0.16655 pd=1.39 as=0.0567 ps=0.69 w=0.42 l=0.15
X10 VDD.t174 A[9].t4 a_980_n1355# VDD.t173 sky130_fd_pr__pfet_01v8_hvt ad=0.14575 pd=1.335 as=0.0441 ps=0.63 w=0.42 l=0.15
X11 VDD.t104 a_1971_n2463# a_2001_n2110# VDD.t103 sky130_fd_pr__pfet_01v8_hvt ad=0.0693 pd=0.75 as=0.0441 ps=0.63 w=0.42 l=0.15
X12 a_980_n3055# A[4].t4 a_898_n3055# VDD.t213 sky130_fd_pr__pfet_01v8_hvt ad=0.0441 pd=0.63 as=0.1092 ps=1.36 w=0.42 l=0.15
X13 x4.Z[1] a_1349_n4977# VDD.t169 VDD.t168 sky130_fd_pr__pfet_01v8_hvt ad=0.475 pd=2.95 as=0.16655 ps=1.39 w=1 l=0.15
X14 GND.t29 x1.x7.X a_2830_345# GND.t28 sky130_fd_pr__nfet_01v8 ad=0.10025 pd=0.985 as=0.0567 ps=0.69 w=0.42 l=0.15
X15 a_663_n1355# A[10].t4 x2.x2.Y VDD.t248 sky130_fd_pr__pfet_01v8_hvt ad=0.105 pd=1.21 as=0.26 ps=2.52 w=1 l=0.15
X16 a_391_n3055# A[6].t5 a_285_n3055# VDD.t227 sky130_fd_pr__pfet_01v8_hvt ad=0.135 pd=1.27 as=0.19 ps=1.38 w=1 l=0.15
X17 VDD.t231 A[3].t5 a_391_n4755# VDD.t230 sky130_fd_pr__pfet_01v8_hvt ad=0.26 pd=2.52 as=0.135 ps=1.27 w=1 l=0.15
X18 x17.A0 a_3281_n3277# GND.t3 GND.t2 sky130_fd_pr__nfet_01v8 ad=0.182 pd=1.86 as=0.1118 ps=1.04 w=0.65 l=0.15
X19 x16.A0 a_3281_123# GND.t25 GND.t24 sky130_fd_pr__nfet_01v8 ad=0.182 pd=1.86 as=0.1118 ps=1.04 w=0.65 l=0.15
X20 a_391_345# A[14].t5 a_285_345# VDD.t209 sky130_fd_pr__pfet_01v8_hvt ad=0.135 pd=1.27 as=0.19 ps=1.38 w=1 l=0.15
X21 GND.t241 A[15].t3 x5.A GND.t240 sky130_fd_pr__nfet_01v8 ad=0.169 pd=1.82 as=0.08775 ps=0.92 w=0.65 l=0.15
X22 a_1349_123# x1.x2.Y VDD.t22 VDD.t21 sky130_fd_pr__pfet_01v8_hvt ad=0.0567 pd=0.69 as=0.1176 ps=1.4 w=0.42 l=0.15
X23 GND.t140 A[13].t3 x5.A GND.t139 sky130_fd_pr__nfet_01v8 ad=0.08937 pd=0.925 as=0.11863 ps=1.015 w=0.65 l=0.15
X24 VDD.t217 A[11].t4 a_663_n1355# VDD.t216 sky130_fd_pr__pfet_01v8_hvt ad=0.26 pd=2.52 as=0.105 ps=1.21 w=1 l=0.15
X25 a_2361_n4977# x4.x6.Y VDD.t182 VDD.t181 sky130_fd_pr__pfet_01v8_hvt ad=0.0567 pd=0.69 as=0.1176 ps=1.4 w=0.42 l=0.15
X26 a_2912_345# A[14].t1 a_2830_345# VDD.t211 sky130_fd_pr__pfet_01v8_hvt ad=0.0441 pd=0.63 as=0.1092 ps=1.36 w=0.42 l=0.15
X27 GND.t46 x1.x8.X a_3367_123# GND.t45 sky130_fd_pr__nfet_01v8 ad=0.1118 pd=1.04 as=0.0567 ps=0.69 w=0.42 l=0.15
X28 x2.x3.X a_898_n1355# VDD.t78 VDD.t77 sky130_fd_pr__pfet_01v8_hvt ad=0.34 pd=2.68 as=0.14575 ps=1.335 w=1 l=0.15
X29 a_1349_n3277# x3.x2.Y VDD.t160 VDD.t159 sky130_fd_pr__pfet_01v8_hvt ad=0.0567 pd=0.69 as=0.1176 ps=1.4 w=0.42 l=0.15
X30 x3.x6.Y A[5].t1 VDD.t224 VDD.t223 sky130_fd_pr__pfet_01v8_hvt ad=0.26 pd=2.52 as=0.26 ps=2.52 w=1 l=0.15
X31 x1.x5.Y A[15].t0 GND.t243 GND.t242 sky130_fd_pr__nfet_01v8 ad=0.169 pd=1.82 as=0.169 ps=1.82 w=0.65 l=0.15
X32 VDD.t43 x4.Z[2] a_65_n727# VDD.t42 sky130_fd_pr__pfet_01v8_hvt ad=0.31245 pd=1.68 as=0.0588 ps=0.7 w=0.42 l=0.15
X33 x4.Z[0] a_3281_n4977# VDD.t122 VDD.t121 sky130_fd_pr__pfet_01v8_hvt ad=0.475 pd=2.95 as=0.16655 ps=1.39 w=1 l=0.15
X34 a_1684_n4137# Y[2].t5 GND.t179 GND.t178 sky130_fd_pr__nfet_01v8 ad=0.0693 pd=0.75 as=0.11285 ps=1.045 w=0.42 l=0.15
X35 GND.t187 a_1143_n4163# a_1077_n4137# GND.t186 sky130_fd_pr__nfet_01v8 ad=0.1449 pd=1.11 as=0.0693 ps=0.75 w=0.42 l=0.15
X36 x11.B a_2029_n699# GND.t56 GND.t55 sky130_fd_pr__nfet_01v8 ad=0.182 pd=1.86 as=0.1118 ps=1.04 w=0.65 l=0.15
X37 VDD.t28 x5.A a_985_n727# VDD.t27 sky130_fd_pr__pfet_01v8_hvt ad=0.0567 pd=0.69 as=0.1092 ps=1.36 w=0.42 l=0.15
X38 a_1143_n2463# Y[3].t8 VDD.t204 VDD.t203 sky130_fd_pr__pfet_01v8_hvt ad=0.1176 pd=1.4 as=0.0693 ps=0.75 w=0.42 l=0.15
X39 a_2001_n2110# x4.Z[1] a_1542_n2285# VDD.t105 sky130_fd_pr__pfet_01v8_hvt ad=0.0441 pd=0.63 as=0.1932 ps=1.34 w=0.42 l=0.15
X40 VDD.t244 A[15].t4 a_663_345# VDD.t243 sky130_fd_pr__pfet_01v8_hvt ad=0.26 pd=2.52 as=0.105 ps=1.21 w=1 l=0.15
X41 a_2830_n4755# A[2].t0 GND.t267 GND.t266 sky130_fd_pr__nfet_01v8 ad=0.0567 pd=0.69 as=0.1092 ps=1.36 w=0.42 l=0.15
X42 GND.t209 A[11].t3 x2.Z[2] GND.t208 sky130_fd_pr__nfet_01v8 ad=0.169 pd=1.82 as=0.08775 ps=0.92 w=0.65 l=0.15
X43 x13.A1 a_1349_n1577# GND.t144 GND.t143 sky130_fd_pr__nfet_01v8 ad=0.182 pd=1.86 as=0.1118 ps=1.04 w=0.65 l=0.15
X44 x3.Z[2] A[4].t3 GND.t205 GND.t204 sky130_fd_pr__nfet_01v8 ad=0.11863 pd=1.015 as=0.169 ps=1.82 w=0.65 l=0.15
X45 a_2512_n4137# Y[2].t3 GND.t177 GND.t176 sky130_fd_pr__nfet_01v8 ad=0.0693 pd=0.75 as=0.11285 ps=1.045 w=0.42 l=0.15
X46 a_1077_n2437# x13.X a_714_n2285# GND.t80 sky130_fd_pr__nfet_01v8 ad=0.0693 pd=0.75 as=0.09975 ps=0.895 w=0.42 l=0.15
X47 GND.t215 A[5].t3 x3.Z[2] GND.t214 sky130_fd_pr__nfet_01v8 ad=0.08937 pd=0.925 as=0.11863 ps=1.015 w=0.65 l=0.15
X48 a_1905_n4137# x17.A0 a_1542_n3985# GND.t10 sky130_fd_pr__nfet_01v8 ad=0.0693 pd=0.75 as=0.09975 ps=0.895 w=0.42 l=0.15
X49 GND.t102 a_1542_n3985# x17.X GND.t101 sky130_fd_pr__nfet_01v8 ad=0.11285 pd=1.045 as=0.169 ps=1.82 w=0.65 l=0.15
X50 VDD.t81 x2.x3.X a_1349_n1577# VDD.t80 sky130_fd_pr__pfet_01v8_hvt ad=0.16655 pd=1.39 as=0.0567 ps=0.69 w=0.42 l=0.15
X51 x4.x5.Y A[3].t0 GND.t229 GND.t228 sky130_fd_pr__nfet_01v8 ad=0.169 pd=1.82 as=0.169 ps=1.82 w=0.65 l=0.15
X52 a_856_n4137# Y[3].t3 GND.t193 GND.t192 sky130_fd_pr__nfet_01v8 ad=0.0693 pd=0.75 as=0.11285 ps=1.045 w=0.42 l=0.15
X53 x1.x8.X a_2830_345# GND.t27 GND.t26 sky130_fd_pr__nfet_01v8 ad=0.169 pd=1.82 as=0.10025 ps=0.985 w=0.65 l=0.15
X54 a_2949_n699# x5.A VDD.t26 VDD.t25 sky130_fd_pr__pfet_01v8_hvt ad=0.0567 pd=0.69 as=0.1176 ps=1.4 w=0.42 l=0.15
X55 GND.t136 a_2370_n3985# x16.X GND.t135 sky130_fd_pr__nfet_01v8 ad=0.11285 pd=1.045 as=0.169 ps=1.82 w=0.65 l=0.15
X56 x3.x8.X a_2830_n3055# GND.t147 GND.t146 sky130_fd_pr__nfet_01v8 ad=0.169 pd=1.82 as=0.10025 ps=0.985 w=0.65 l=0.15
X57 VDD.t70 x8.Y a_2580_n477# VDD.t69 sky130_fd_pr__pfet_01v8_hvt ad=0.14575 pd=1.335 as=0.0441 ps=0.63 w=0.42 l=0.15
X58 GND.t128 x4.x8.X a_3367_n4977# GND.t127 sky130_fd_pr__nfet_01v8 ad=0.1118 pd=1.04 as=0.0567 ps=0.69 w=0.42 l=0.15
X59 x10.B a_2498_n477# GND.t54 GND.t53 sky130_fd_pr__nfet_01v8 ad=0.169 pd=1.82 as=0.10025 ps=0.985 w=0.65 l=0.15
X60 VDD.t107 a_2799_n2463# a_2829_n2110# VDD.t106 sky130_fd_pr__pfet_01v8_hvt ad=0.0693 pd=0.75 as=0.0441 ps=0.63 w=0.42 l=0.15
X61 a_285_n3055# A[5].t5 a_203_n3055# VDD.t222 sky130_fd_pr__pfet_01v8_hvt ad=0.19 pd=1.38 as=0.13 ps=1.26 w=1 l=0.15
X62 VDD.t215 A[4].t1 a_2361_n3277# VDD.t214 sky130_fd_pr__pfet_01v8_hvt ad=0.16655 pd=1.39 as=0.0567 ps=0.69 w=0.42 l=0.15
X63 GND.t138 A[13].t2 a_898_345# GND.t137 sky130_fd_pr__nfet_01v8 ad=0.10025 pd=0.985 as=0.0567 ps=0.69 w=0.42 l=0.15
X64 VDD.t68 x9.Y a_2029_n699# VDD.t67 sky130_fd_pr__pfet_01v8_hvt ad=0.16655 pd=1.39 as=0.0567 ps=0.69 w=0.42 l=0.15
X65 a_391_n1355# A[10].t5 a_285_n1355# VDD.t247 sky130_fd_pr__pfet_01v8_hvt ad=0.135 pd=1.27 as=0.19 ps=1.38 w=1 l=0.15
X66 a_980_n1355# A[8].t4 a_898_n1355# VDD.t178 sky130_fd_pr__pfet_01v8_hvt ad=0.0441 pd=0.63 as=0.1092 ps=1.36 w=0.42 l=0.15
X67 x16.A1 a_3281_n1577# GND.t8 GND.t7 sky130_fd_pr__nfet_01v8 ad=0.182 pd=1.86 as=0.1118 ps=1.04 w=0.65 l=0.15
X68 a_203_n4755# A[0].t5 x4.Z[2] VDD.t250 sky130_fd_pr__pfet_01v8_hvt ad=0.13 pd=1.26 as=0.26 ps=2.52 w=1 l=0.15
X69 GND.t149 a_714_n3985# Y[0].t1 GND.t148 sky130_fd_pr__nfet_01v8 ad=0.11285 pd=1.045 as=0.169 ps=1.82 w=0.65 l=0.15
X70 a_2829_n3810# x16.A1 a_2370_n3985# VDD.t86 sky130_fd_pr__pfet_01v8_hvt ad=0.0441 pd=0.63 as=0.1932 ps=1.34 w=0.42 l=0.15
X71 a_3367_123# x1.x5.Y a_3281_123# GND.t31 sky130_fd_pr__nfet_01v8 ad=0.0567 pd=0.69 as=0.1176 ps=1.4 w=0.42 l=0.15
X72 a_1971_n4163# Y[2].t8 VDD.t196 VDD.t195 sky130_fd_pr__pfet_01v8_hvt ad=0.1176 pd=1.4 as=0.0693 ps=0.75 w=0.42 l=0.15
X73 Y[4].t1 a_65_n727# VDD.t58 VDD.t57 sky130_fd_pr__pfet_01v8_hvt ad=0.26 pd=2.52 as=0.31245 ps=1.68 w=1 l=0.15
X74 a_1542_n3985# x4.Z[0] a_1684_n4137# GND.t150 sky130_fd_pr__nfet_01v8 ad=0.09975 pd=0.895 as=0.0693 ps=0.75 w=0.42 l=0.15
X75 x4.x8.X a_2830_n4755# VDD.t124 VDD.t123 sky130_fd_pr__pfet_01v8_hvt ad=0.34 pd=2.68 as=0.14575 ps=1.335 w=1 l=0.15
X76 a_3367_n4977# x4.x5.Y a_3281_n4977# GND.t103 sky130_fd_pr__nfet_01v8 ad=0.0567 pd=0.69 as=0.1176 ps=1.4 w=0.42 l=0.15
X77 x1.x5.Y A[15].t1 VDD.t246 VDD.t245 sky130_fd_pr__pfet_01v8_hvt ad=0.26 pd=2.52 as=0.26 ps=2.52 w=1 l=0.15
X78 a_2361_n3277# x3.x6.Y VDD.t146 VDD.t145 sky130_fd_pr__pfet_01v8_hvt ad=0.0567 pd=0.69 as=0.1176 ps=1.4 w=0.42 l=0.15
X79 x2.x6.Y A[9].t1 VDD.t176 VDD.t175 sky130_fd_pr__pfet_01v8_hvt ad=0.26 pd=2.52 as=0.26 ps=2.52 w=1 l=0.15
X80 VDD.t257 A[7].t5 a_391_n3055# VDD.t256 sky130_fd_pr__pfet_01v8_hvt ad=0.26 pd=2.52 as=0.135 ps=1.27 w=1 l=0.15
X81 x3.Z[1] a_1349_n3277# VDD.t112 VDD.t111 sky130_fd_pr__pfet_01v8_hvt ad=0.475 pd=2.95 as=0.16655 ps=1.39 w=1 l=0.15
X82 GND.t152 a_1971_n4163# a_1905_n4137# GND.t151 sky130_fd_pr__nfet_01v8 ad=0.1449 pd=1.11 as=0.0693 ps=0.75 w=0.42 l=0.15
X83 GND.t79 a_1143_n2463# a_1077_n2437# GND.t78 sky130_fd_pr__nfet_01v8 ad=0.1449 pd=1.11 as=0.0693 ps=0.75 w=0.42 l=0.15
X84 a_1684_n2437# Y[2].t13 GND.t181 GND.t180 sky130_fd_pr__nfet_01v8 ad=0.0693 pd=0.75 as=0.11285 ps=1.045 w=0.42 l=0.15
X85 a_1143_n4163# Y[3].t2 GND.t195 GND.t194 sky130_fd_pr__nfet_01v8 ad=0.1092 pd=1.36 as=0.1449 ps=1.11 w=0.42 l=0.15
X86 a_795_n727# x4.Z[2] GND.t38 GND.t37 sky130_fd_pr__nfet_01v8 ad=0.08775 pd=0.92 as=0.169 ps=1.82 w=0.65 l=0.15
X87 a_714_n3985# x17.X a_856_n4137# GND.t134 sky130_fd_pr__nfet_01v8 ad=0.09975 pd=0.895 as=0.0693 ps=0.75 w=0.42 l=0.15
X88 VDD.t156 A[13].t4 a_980_345# VDD.t155 sky130_fd_pr__pfet_01v8_hvt ad=0.14575 pd=1.335 as=0.0441 ps=0.63 w=0.42 l=0.15
X89 a_235_n727# x2.Z[2] a_147_n727# GND.t61 sky130_fd_pr__nfet_01v8 ad=0.0798 pd=0.8 as=0.0609 ps=0.71 w=0.42 l=0.15
X90 GND.t40 x4.Z[2] a_341_n727# GND.t39 sky130_fd_pr__nfet_01v8 ad=0.19627 pd=1.33 as=0.0693 ps=0.75 w=0.42 l=0.15
X91 x2.Z[2] A[8].t3 GND.t164 GND.t163 sky130_fd_pr__nfet_01v8 ad=0.11863 pd=1.015 as=0.169 ps=1.82 w=0.65 l=0.15
X92 a_2830_n3055# A[6].t0 GND.t225 GND.t224 sky130_fd_pr__nfet_01v8 ad=0.0567 pd=0.69 as=0.1092 ps=1.36 w=0.42 l=0.15
X93 a_65_n727# x3.Z[2] VDD.t49 VDD.t48 sky130_fd_pr__pfet_01v8_hvt ad=0.0588 pd=0.7 as=0.0777 ps=0.79 w=0.42 l=0.15
X94 GND.t85 a_1542_n2285# x14.X GND.t84 sky130_fd_pr__nfet_01v8 ad=0.11285 pd=1.045 as=0.169 ps=1.82 w=0.65 l=0.15
X95 a_1905_n2437# x3.Z[1] a_1542_n2285# GND.t13 sky130_fd_pr__nfet_01v8 ad=0.0693 pd=0.75 as=0.09975 ps=0.895 w=0.42 l=0.15
X96 a_2512_n2437# Y[2].t11 GND.t175 GND.t174 sky130_fd_pr__nfet_01v8 ad=0.0693 pd=0.75 as=0.11285 ps=1.045 w=0.42 l=0.15
X97 VDD.t72 x2.Z[2] a_65_n727# VDD.t71 sky130_fd_pr__pfet_01v8_hvt ad=0.0777 pd=0.79 as=0.0735 ps=0.77 w=0.42 l=0.15
X98 VDD.t47 x4.Z[2] x9.Y VDD.t46 sky130_fd_pr__pfet_01v8_hvt ad=0.26 pd=2.52 as=0.26 ps=2.52 w=1 l=0.15
X99 a_1349_n1577# x2.x2.Y VDD.t83 VDD.t82 sky130_fd_pr__pfet_01v8_hvt ad=0.0567 pd=0.69 as=0.1176 ps=1.4 w=0.42 l=0.15
X100 GND.t158 A[9].t3 x2.Z[2] GND.t157 sky130_fd_pr__nfet_01v8 ad=0.08937 pd=0.925 as=0.11863 ps=1.015 w=0.65 l=0.15
X101 a_663_345# A[14].t4 x1.x2.Y VDD.t210 sky130_fd_pr__pfet_01v8_hvt ad=0.105 pd=1.21 as=0.26 ps=2.52 w=1 l=0.15
X102 a_856_n2437# Y[3].t7 GND.t189 GND.t188 sky130_fd_pr__nfet_01v8 ad=0.0693 pd=0.75 as=0.11285 ps=1.045 w=0.42 l=0.15
X103 x3.x5.Y A[7].t0 GND.t257 GND.t256 sky130_fd_pr__nfet_01v8 ad=0.169 pd=1.82 as=0.169 ps=1.82 w=0.65 l=0.15
X104 x17.A0 a_3281_n3277# VDD.t3 VDD.t2 sky130_fd_pr__pfet_01v8_hvt ad=0.475 pd=2.95 as=0.16655 ps=1.39 w=1 l=0.15
X105 x2.x8.X a_2830_n1355# GND.t1 GND.t0 sky130_fd_pr__nfet_01v8 ad=0.169 pd=1.82 as=0.10025 ps=0.985 w=0.65 l=0.15
X106 GND.t83 a_2370_n2285# x13.X GND.t82 sky130_fd_pr__nfet_01v8 ad=0.11285 pd=1.045 as=0.169 ps=1.82 w=0.65 l=0.15
X107 x4.x7.X a_2361_n4977# GND.t111 GND.t110 sky130_fd_pr__nfet_01v8 ad=0.182 pd=1.86 as=0.1118 ps=1.04 w=0.65 l=0.15
X108 GND.t116 x4.x7.X a_2830_n4755# GND.t115 sky130_fd_pr__nfet_01v8 ad=0.10025 pd=0.985 as=0.0567 ps=0.69 w=0.42 l=0.15
X109 a_2498_n477# x11.B GND.t96 GND.t95 sky130_fd_pr__nfet_01v8 ad=0.0567 pd=0.69 as=0.1092 ps=1.36 w=0.42 l=0.15
X110 a_285_n1355# A[9].t5 a_203_n1355# VDD.t172 sky130_fd_pr__pfet_01v8_hvt ad=0.19 pd=1.38 as=0.13 ps=1.26 w=1 l=0.15
X111 GND.t87 a_714_n2285# Y[1].t0 GND.t86 sky130_fd_pr__nfet_01v8 ad=0.11285 pd=1.045 as=0.169 ps=1.82 w=0.65 l=0.15
X112 a_285_345# A[13].t5 a_203_345# VDD.t152 sky130_fd_pr__pfet_01v8_hvt ad=0.19 pd=1.38 as=0.13 ps=1.26 w=1 l=0.15
X113 a_2799_n4163# Y[2].t6 VDD.t198 VDD.t197 sky130_fd_pr__pfet_01v8_hvt ad=0.1176 pd=1.4 as=0.0693 ps=0.75 w=0.42 l=0.15
X114 VDD.t116 a_1542_n3985# x17.X VDD.t115 sky130_fd_pr__pfet_01v8_hvt ad=0.15835 pd=1.395 as=0.26 ps=2.52 w=1 l=0.15
X115 a_980_345# A[12].t4 a_898_345# VDD.t134 sky130_fd_pr__pfet_01v8_hvt ad=0.0441 pd=0.63 as=0.1092 ps=1.36 w=0.42 l=0.15
X116 x4.x5.Y A[3].t1 VDD.t235 VDD.t234 sky130_fd_pr__pfet_01v8_hvt ad=0.26 pd=2.52 as=0.26 ps=2.52 w=1 l=0.15
X117 a_1542_n2285# x4.Z[1] a_1684_n2437# GND.t90 sky130_fd_pr__nfet_01v8 ad=0.09975 pd=0.895 as=0.0693 ps=0.75 w=0.42 l=0.15
X118 x11.B a_2029_n699# VDD.t66 VDD.t65 sky130_fd_pr__pfet_01v8_hvt ad=0.475 pd=2.95 as=0.16655 ps=1.39 w=1 l=0.15
X119 GND.t113 x4.x3.X a_1435_n4977# GND.t112 sky130_fd_pr__nfet_01v8 ad=0.1118 pd=1.04 as=0.0567 ps=0.69 w=0.42 l=0.15
X120 VDD.t151 a_2370_n3985# x16.X VDD.t150 sky130_fd_pr__pfet_01v8_hvt ad=0.15835 pd=1.395 as=0.26 ps=2.52 w=1 l=0.15
X121 GND.t133 x3.x8.X a_3367_n3277# GND.t132 sky130_fd_pr__nfet_01v8 ad=0.1118 pd=1.04 as=0.0567 ps=0.69 w=0.42 l=0.15
X122 VDD.t56 x1.x8.X a_3281_123# VDD.t55 sky130_fd_pr__pfet_01v8_hvt ad=0.16655 pd=1.39 as=0.0567 ps=0.69 w=0.42 l=0.15
X123 VDD.t180 A[8].t1 a_2361_n1577# VDD.t179 sky130_fd_pr__pfet_01v8_hvt ad=0.16655 pd=1.39 as=0.0567 ps=0.69 w=0.42 l=0.15
X124 x13.A1 a_1349_n1577# VDD.t158 VDD.t157 sky130_fd_pr__pfet_01v8_hvt ad=0.475 pd=2.95 as=0.16655 ps=1.39 w=1 l=0.15
X125 a_203_n3055# A[4].t5 x3.Z[2] VDD.t212 sky130_fd_pr__pfet_01v8_hvt ad=0.13 pd=1.26 as=0.26 ps=2.52 w=1 l=0.15
X126 VDD.t219 A[11].t5 a_391_n1355# VDD.t218 sky130_fd_pr__pfet_01v8_hvt ad=0.26 pd=2.52 as=0.135 ps=1.27 w=1 l=0.15
X127 a_1143_n2463# Y[3].t6 GND.t191 GND.t190 sky130_fd_pr__nfet_01v8 ad=0.1092 pd=1.36 as=0.1449 ps=1.11 w=0.42 l=0.15
X128 GND.t89 a_1971_n2463# a_1905_n2437# GND.t88 sky130_fd_pr__nfet_01v8 ad=0.1449 pd=1.11 as=0.0693 ps=0.75 w=0.42 l=0.15
X129 VDD.t164 a_714_n3985# Y[0].t0 VDD.t163 sky130_fd_pr__pfet_01v8_hvt ad=0.15835 pd=1.395 as=0.26 ps=2.52 w=1 l=0.15
X130 a_1971_n2463# Y[2].t16 VDD.t184 VDD.t183 sky130_fd_pr__pfet_01v8_hvt ad=0.1176 pd=1.4 as=0.0693 ps=0.75 w=0.42 l=0.15
X131 a_2829_n2110# x13.A1 a_2370_n2285# VDD.t79 sky130_fd_pr__pfet_01v8_hvt ad=0.0441 pd=0.63 as=0.1932 ps=1.34 w=0.42 l=0.15
X132 a_714_n2285# x14.X a_856_n2437# GND.t81 sky130_fd_pr__nfet_01v8 ad=0.09975 pd=0.895 as=0.0693 ps=0.75 w=0.42 l=0.15
X133 x8.Y x2.Z[2] GND.t64 GND.t63 sky130_fd_pr__nfet_01v8 ad=0.169 pd=1.82 as=0.169 ps=1.82 w=0.65 l=0.15
X134 a_2830_n1355# A[10].t0 GND.t245 GND.t244 sky130_fd_pr__nfet_01v8 ad=0.0567 pd=0.69 as=0.1092 ps=1.36 w=0.42 l=0.15
X135 x3.x8.X a_2830_n3055# VDD.t162 VDD.t161 sky130_fd_pr__pfet_01v8_hvt ad=0.34 pd=2.68 as=0.14575 ps=1.335 w=1 l=0.15
X136 a_3367_n3277# x3.x5.Y a_3281_n3277# GND.t9 sky130_fd_pr__nfet_01v8 ad=0.0567 pd=0.69 as=0.1176 ps=1.4 w=0.42 l=0.15
X137 a_2361_n1577# x2.x6.Y VDD.t92 VDD.t91 sky130_fd_pr__pfet_01v8_hvt ad=0.0567 pd=0.69 as=0.1176 ps=1.4 w=0.42 l=0.15
X138 x10.B a_2498_n477# VDD.t64 VDD.t63 sky130_fd_pr__pfet_01v8_hvt ad=0.34 pd=2.68 as=0.14575 ps=1.335 w=1 l=0.15
X139 x2.x5.Y A[11].t0 GND.t213 GND.t212 sky130_fd_pr__nfet_01v8 ad=0.169 pd=1.82 as=0.169 ps=1.82 w=0.65 l=0.15
X140 x5.A A[12].t3 GND.t120 GND.t119 sky130_fd_pr__nfet_01v8 ad=0.11863 pd=1.015 as=0.169 ps=1.82 w=0.65 l=0.15
X141 x16.A1 a_3281_n1577# VDD.t8 VDD.t7 sky130_fd_pr__pfet_01v8_hvt ad=0.475 pd=2.95 as=0.16655 ps=1.39 w=1 l=0.15
X142 x1.x2.Y A[14].t2 GND.t197 GND.t196 sky130_fd_pr__nfet_01v8 ad=0.08775 pd=0.92 as=0.169 ps=1.82 w=0.65 l=0.15
X143 x3.x7.X a_2361_n3277# GND.t130 GND.t129 sky130_fd_pr__nfet_01v8 ad=0.182 pd=1.86 as=0.1118 ps=1.04 w=0.65 l=0.15
X144 x1.x3.X a_898_345# VDD.t18 VDD.t17 sky130_fd_pr__pfet_01v8_hvt ad=0.34 pd=2.68 as=0.14575 ps=1.335 w=1 l=0.15
X145 GND.t34 x1.x3.X a_1435_123# GND.t33 sky130_fd_pr__nfet_01v8 ad=0.1118 pd=1.04 as=0.0567 ps=0.69 w=0.42 l=0.15
X146 GND.t100 x3.x7.X a_2830_n3055# GND.t99 sky130_fd_pr__nfet_01v8 ad=0.10025 pd=0.985 as=0.0567 ps=0.69 w=0.42 l=0.15
X147 a_3281_123# x1.x5.Y VDD.t38 VDD.t37 sky130_fd_pr__pfet_01v8_hvt ad=0.0567 pd=0.69 as=0.1176 ps=1.4 w=0.42 l=0.15
X148 a_2912_n4755# A[2].t1 a_2830_n4755# VDD.t262 sky130_fd_pr__pfet_01v8_hvt ad=0.0441 pd=0.63 as=0.1092 ps=1.36 w=0.42 l=0.15
X149 GND.t235 A[1].t2 a_898_n4755# GND.t234 sky130_fd_pr__nfet_01v8 ad=0.10025 pd=0.985 as=0.0567 ps=0.69 w=0.42 l=0.15
X150 a_2370_n3985# x16.A1 a_2512_n4137# GND.t72 sky130_fd_pr__nfet_01v8 ad=0.09975 pd=0.895 as=0.0693 ps=0.75 w=0.42 l=0.15
X151 x1.x3.X a_898_345# GND.t17 GND.t16 sky130_fd_pr__nfet_01v8 ad=0.169 pd=1.82 as=0.10025 ps=0.985 w=0.65 l=0.15
X152 x4.x2.Y A[2].t2 GND.t265 GND.t264 sky130_fd_pr__nfet_01v8 ad=0.08775 pd=0.92 as=0.169 ps=1.82 w=0.65 l=0.15
X153 a_898_345# A[12].t2 GND.t118 GND.t117 sky130_fd_pr__nfet_01v8 ad=0.0567 pd=0.69 as=0.1092 ps=1.36 w=0.42 l=0.15
X154 x6.Y x4.Z[2] VDD.t45 VDD.t44 sky130_fd_pr__pfet_01v8_hvt ad=0.135 pd=1.27 as=0.26 ps=2.52 w=1 l=0.15
X155 a_1435_n4977# x4.x2.Y a_1349_n4977# GND.t114 sky130_fd_pr__nfet_01v8 ad=0.0567 pd=0.69 as=0.1176 ps=1.4 w=0.42 l=0.15
X156 a_2733_n4137# x16.A0 a_2370_n3985# GND.t44 sky130_fd_pr__nfet_01v8 ad=0.0693 pd=0.75 as=0.09975 ps=0.895 w=0.42 l=0.15
X157 GND.t74 x2.x8.X a_3367_n1577# GND.t73 sky130_fd_pr__nfet_01v8 ad=0.1118 pd=1.04 as=0.0567 ps=0.69 w=0.42 l=0.15
X158 x4.x7.X a_2361_n4977# VDD.t126 VDD.t125 sky130_fd_pr__pfet_01v8_hvt ad=0.475 pd=2.95 as=0.16655 ps=1.39 w=1 l=0.15
X159 VDD.t132 x4.x7.X a_2912_n4755# VDD.t131 sky130_fd_pr__pfet_01v8_hvt ad=0.14575 pd=1.335 as=0.0441 ps=0.63 w=0.42 l=0.15
X160 GND.t105 a_2799_n4163# a_2733_n4137# GND.t104 sky130_fd_pr__nfet_01v8 ad=0.1449 pd=1.11 as=0.0693 ps=0.75 w=0.42 l=0.15
X161 a_1971_n4163# Y[2].t4 GND.t183 GND.t182 sky130_fd_pr__nfet_01v8 ad=0.1092 pd=1.36 as=0.1449 ps=1.11 w=0.42 l=0.15
X162 x16.A0 a_3281_123# VDD.t30 VDD.t29 sky130_fd_pr__pfet_01v8_hvt ad=0.475 pd=2.95 as=0.16655 ps=1.39 w=1 l=0.15
X163 a_65_n727# x5.A VDD.t24 VDD.t23 sky130_fd_pr__pfet_01v8_hvt ad=0.0735 pd=0.77 as=0.1092 ps=1.36 w=0.42 l=0.15
X164 a_203_n1355# A[8].t5 x2.Z[2] VDD.t177 sky130_fd_pr__pfet_01v8_hvt ad=0.13 pd=1.26 as=0.26 ps=2.52 w=1 l=0.15
X165 GND.t126 x10.B a_3035_n699# GND.t125 sky130_fd_pr__nfet_01v8 ad=0.1118 pd=1.04 as=0.0567 ps=0.69 w=0.42 l=0.15
X166 VDD.t100 a_1542_n2285# x14.X VDD.t99 sky130_fd_pr__pfet_01v8_hvt ad=0.15835 pd=1.395 as=0.26 ps=2.52 w=1 l=0.15
X167 a_2799_n2463# Y[2].t14 VDD.t186 VDD.t185 sky130_fd_pr__pfet_01v8_hvt ad=0.1176 pd=1.4 as=0.0693 ps=0.75 w=0.42 l=0.15
X168 GND.t122 A[12].t0 a_2447_123# GND.t121 sky130_fd_pr__nfet_01v8 ad=0.1118 pd=1.04 as=0.0567 ps=0.69 w=0.42 l=0.15
X169 Y[3].t0 a_985_n727# GND.t124 GND.t123 sky130_fd_pr__nfet_01v8 ad=0.169 pd=1.82 as=0.13165 ps=1.14 w=0.65 l=0.15
X170 x3.x5.Y A[7].t1 VDD.t255 VDD.t254 sky130_fd_pr__pfet_01v8_hvt ad=0.26 pd=2.52 as=0.26 ps=2.52 w=1 l=0.15
X171 x4.x3.X a_898_n4755# GND.t156 GND.t155 sky130_fd_pr__nfet_01v8 ad=0.169 pd=1.82 as=0.10025 ps=0.985 w=0.65 l=0.15
X172 x2.x8.X a_2830_n1355# VDD.t1 VDD.t0 sky130_fd_pr__pfet_01v8_hvt ad=0.34 pd=2.68 as=0.14575 ps=1.335 w=1 l=0.15
X173 a_3367_n1577# x2.x5.Y a_3281_n1577# GND.t71 sky130_fd_pr__nfet_01v8 ad=0.0567 pd=0.69 as=0.1176 ps=1.4 w=0.42 l=0.15
X174 VDD.t98 a_2370_n2285# x13.X VDD.t97 sky130_fd_pr__pfet_01v8_hvt ad=0.15835 pd=1.395 as=0.26 ps=2.52 w=1 l=0.15
X175 GND.t5 x3.x3.X a_1435_n3277# GND.t4 sky130_fd_pr__nfet_01v8 ad=0.1118 pd=1.04 as=0.0567 ps=0.69 w=0.42 l=0.15
X176 x6.Y x3.Z[2] a_795_n727# GND.t42 sky130_fd_pr__nfet_01v8 ad=0.169 pd=1.82 as=0.08775 ps=0.92 w=0.65 l=0.15
X177 VDD.t102 a_714_n2285# Y[1].t1 VDD.t101 sky130_fd_pr__pfet_01v8_hvt ad=0.15835 pd=1.395 as=0.26 ps=2.52 w=1 l=0.15
X178 GND.t253 A[0].t0 a_2447_n4977# GND.t252 sky130_fd_pr__nfet_01v8 ad=0.1118 pd=1.04 as=0.0567 ps=0.69 w=0.42 l=0.15
X179 x2.x7.X a_2361_n1577# GND.t12 GND.t11 sky130_fd_pr__nfet_01v8 ad=0.182 pd=1.86 as=0.1118 ps=1.04 w=0.65 l=0.15
X180 GND.t76 x2.x7.X a_2830_n1355# GND.t75 sky130_fd_pr__nfet_01v8 ad=0.10025 pd=0.985 as=0.0567 ps=0.69 w=0.42 l=0.15
X181 VDD.t142 x4.x8.X a_3281_n4977# VDD.t141 sky130_fd_pr__pfet_01v8_hvt ad=0.16655 pd=1.39 as=0.0567 ps=0.69 w=0.42 l=0.15
X182 a_2370_n2285# x13.A1 a_2512_n2437# GND.t67 sky130_fd_pr__nfet_01v8 ad=0.09975 pd=0.895 as=0.0693 ps=0.75 w=0.42 l=0.15
X183 GND.t217 A[5].t2 a_898_n3055# GND.t216 sky130_fd_pr__nfet_01v8 ad=0.10025 pd=0.985 as=0.0567 ps=0.69 w=0.42 l=0.15
X184 a_2447_n4977# x4.x6.Y a_2361_n4977# GND.t169 sky130_fd_pr__nfet_01v8 ad=0.0567 pd=0.69 as=0.1176 ps=1.4 w=0.42 l=0.15
X185 a_2115_n699# x3.Z[2] a_2029_n699# GND.t43 sky130_fd_pr__nfet_01v8 ad=0.0567 pd=0.69 as=0.1176 ps=1.4 w=0.42 l=0.15
X186 a_2733_n2437# x13.A0 a_2370_n2285# GND.t32 sky130_fd_pr__nfet_01v8 ad=0.0693 pd=0.75 as=0.09975 ps=0.895 w=0.42 l=0.15
X187 x3.x2.Y A[6].t2 GND.t223 GND.t222 sky130_fd_pr__nfet_01v8 ad=0.08775 pd=0.92 as=0.169 ps=1.82 w=0.65 l=0.15
X188 x4.Z[2] A[2].t3 GND.t263 GND.t262 sky130_fd_pr__nfet_01v8 ad=0.08775 pd=0.92 as=0.08937 ps=0.925 w=0.65 l=0.15
X189 a_2447_123# x1.x6.Y a_2361_123# GND.t30 sky130_fd_pr__nfet_01v8 ad=0.0567 pd=0.69 as=0.1176 ps=1.4 w=0.42 l=0.15
X190 Y[2].t1 a_2949_n699# GND.t52 GND.t51 sky130_fd_pr__nfet_01v8 ad=0.182 pd=1.86 as=0.1118 ps=1.04 w=0.65 l=0.15
X191 a_3281_n4977# x4.x5.Y VDD.t118 VDD.t117 sky130_fd_pr__pfet_01v8_hvt ad=0.0567 pd=0.69 as=0.1176 ps=1.4 w=0.42 l=0.15
X192 x8.Y x2.Z[2] VDD.t74 VDD.t73 sky130_fd_pr__pfet_01v8_hvt ad=0.26 pd=2.52 as=0.26 ps=2.52 w=1 l=0.15
X193 a_1971_n2463# Y[2].t12 GND.t171 GND.t170 sky130_fd_pr__nfet_01v8 ad=0.1092 pd=1.36 as=0.1449 ps=1.11 w=0.42 l=0.15
X194 GND.t92 a_2799_n2463# a_2733_n2437# GND.t91 sky130_fd_pr__nfet_01v8 ad=0.1449 pd=1.11 as=0.0693 ps=0.75 w=0.42 l=0.15
X195 a_2799_n4163# Y[2].t2 GND.t185 GND.t184 sky130_fd_pr__nfet_01v8 ad=0.1092 pd=1.36 as=0.1449 ps=1.11 w=0.42 l=0.15
X196 GND.t50 x6.Y a_1139_n727# GND.t49 sky130_fd_pr__nfet_01v8 ad=0.13165 pd=1.14 as=0.0441 ps=0.63 w=0.42 l=0.15
X197 a_2912_n3055# A[6].t1 a_2830_n3055# VDD.t229 sky130_fd_pr__pfet_01v8_hvt ad=0.0441 pd=0.63 as=0.1092 ps=1.36 w=0.42 l=0.15
X198 a_147_n727# x5.A a_65_n727# GND.t21 sky130_fd_pr__nfet_01v8 ad=0.0609 pd=0.71 as=0.1092 ps=1.36 w=0.42 l=0.15
X199 x2.x5.Y A[11].t1 VDD.t221 VDD.t220 sky130_fd_pr__pfet_01v8_hvt ad=0.26 pd=2.52 as=0.26 ps=2.52 w=1 l=0.15
X200 x3.x3.X a_898_n3055# GND.t94 GND.t93 sky130_fd_pr__nfet_01v8 ad=0.169 pd=1.82 as=0.10025 ps=0.985 w=0.65 l=0.15
X201 x4.x6.Y A[1].t0 GND.t237 GND.t236 sky130_fd_pr__nfet_01v8 ad=0.169 pd=1.82 as=0.169 ps=1.82 w=0.65 l=0.15
X202 VDD.t238 A[1].t4 a_980_n4755# VDD.t237 sky130_fd_pr__pfet_01v8_hvt ad=0.14575 pd=1.335 as=0.0441 ps=0.63 w=0.42 l=0.15
X203 GND.t239 A[15].t2 x1.x2.Y GND.t238 sky130_fd_pr__nfet_01v8 ad=0.169 pd=1.82 as=0.08775 ps=0.92 w=0.65 l=0.15
X204 GND.t69 x2.x3.X a_1435_n1577# GND.t68 sky130_fd_pr__nfet_01v8 ad=0.1118 pd=1.04 as=0.0567 ps=0.69 w=0.42 l=0.15
X205 a_1435_n3277# x3.x2.Y a_1349_n3277# GND.t145 sky130_fd_pr__nfet_01v8 ad=0.0567 pd=0.69 as=0.1176 ps=1.4 w=0.42 l=0.15
X206 GND.t231 A[3].t2 x4.x2.Y GND.t230 sky130_fd_pr__nfet_01v8 ad=0.169 pd=1.82 as=0.08775 ps=0.92 w=0.65 l=0.15
X207 a_663_n4755# A[2].t4 x4.x2.Y VDD.t261 sky130_fd_pr__pfet_01v8_hvt ad=0.105 pd=1.21 as=0.26 ps=2.52 w=1 l=0.15
X208 a_985_n727# x2.Z[2] VDD.t76 VDD.t75 sky130_fd_pr__pfet_01v8_hvt ad=0.06615 pd=0.735 as=0.0567 ps=0.69 w=0.42 l=0.15
X209 x3.x7.X a_2361_n3277# VDD.t144 VDD.t143 sky130_fd_pr__pfet_01v8_hvt ad=0.475 pd=2.95 as=0.16655 ps=1.39 w=1 l=0.15
X210 VDD.t114 x3.x7.X a_2912_n3055# VDD.t113 sky130_fd_pr__pfet_01v8_hvt ad=0.14575 pd=1.335 as=0.0441 ps=0.63 w=0.42 l=0.15
X211 a_898_n4755# A[0].t2 GND.t255 GND.t254 sky130_fd_pr__nfet_01v8 ad=0.0567 pd=0.69 as=0.1092 ps=1.36 w=0.42 l=0.15
X212 VDD.t140 x10.B a_2949_n699# VDD.t139 sky130_fd_pr__pfet_01v8_hvt ad=0.16655 pd=1.39 as=0.0567 ps=0.69 w=0.42 l=0.15
X213 VDD.t233 A[3].t4 a_663_n4755# VDD.t232 sky130_fd_pr__pfet_01v8_hvt ad=0.26 pd=2.52 as=0.105 ps=1.21 w=1 l=0.15
X214 VDD.t41 x1.x3.X a_1349_123# VDD.t40 sky130_fd_pr__pfet_01v8_hvt ad=0.16655 pd=1.39 as=0.0567 ps=0.69 w=0.42 l=0.15
X215 x1.x7.X a_2361_123# GND.t19 GND.t18 sky130_fd_pr__nfet_01v8 ad=0.182 pd=1.86 as=0.1118 ps=1.04 w=0.65 l=0.15
X216 a_341_n727# x3.Z[2] a_235_n727# GND.t41 sky130_fd_pr__nfet_01v8 ad=0.0693 pd=0.75 as=0.0798 ps=0.8 w=0.42 l=0.15
X217 x4.x3.X a_898_n4755# VDD.t171 VDD.t170 sky130_fd_pr__pfet_01v8_hvt ad=0.34 pd=2.68 as=0.14575 ps=1.335 w=1 l=0.15
X218 VDD.t148 x3.x8.X a_3281_n3277# VDD.t147 sky130_fd_pr__pfet_01v8_hvt ad=0.16655 pd=1.39 as=0.0567 ps=0.69 w=0.42 l=0.15
X219 a_203_345# A[12].t5 x5.A VDD.t133 sky130_fd_pr__pfet_01v8_hvt ad=0.13 pd=1.26 as=0.26 ps=2.52 w=1 l=0.15
X220 GND.t160 A[9].t2 a_898_n1355# GND.t159 sky130_fd_pr__nfet_01v8 ad=0.10025 pd=0.985 as=0.0567 ps=0.69 w=0.42 l=0.15
X221 a_1684_n3810# Y[2].t9 VDD.t190 VDD.t189 sky130_fd_pr__pfet_01v8_hvt ad=0.07665 pd=0.785 as=0.15835 ps=1.395 w=0.42 l=0.15
X222 a_1173_n3810# x17.X a_714_n3985# VDD.t149 sky130_fd_pr__pfet_01v8_hvt ad=0.0441 pd=0.63 as=0.1932 ps=1.34 w=0.42 l=0.15
X223 GND.t203 A[4].t0 a_2447_n3277# GND.t202 sky130_fd_pr__nfet_01v8 ad=0.1118 pd=1.04 as=0.0567 ps=0.69 w=0.42 l=0.15
X224 x3.Z[2] A[6].t3 GND.t221 GND.t220 sky130_fd_pr__nfet_01v8 ad=0.08775 pd=0.92 as=0.08937 ps=0.925 w=0.65 l=0.15
X225 a_1542_n3985# x17.A0 a_1684_n3810# VDD.t11 sky130_fd_pr__pfet_01v8_hvt ad=0.1932 pd=1.34 as=0.07665 ps=0.785 w=0.42 l=0.15
X226 Y[3].t1 a_985_n727# VDD.t138 VDD.t137 sky130_fd_pr__pfet_01v8_hvt ad=0.26 pd=2.52 as=0.14222 ps=1.335 w=1 l=0.15
X227 x2.x2.Y A[10].t2 GND.t249 GND.t248 sky130_fd_pr__nfet_01v8 ad=0.08775 pd=0.92 as=0.169 ps=1.82 w=0.65 l=0.15
X228 a_1435_123# x1.x2.Y a_1349_123# GND.t20 sky130_fd_pr__nfet_01v8 ad=0.0567 pd=0.69 as=0.1176 ps=1.4 w=0.42 l=0.15
X229 a_2830_345# A[14].t0 GND.t201 GND.t200 sky130_fd_pr__nfet_01v8 ad=0.0567 pd=0.69 as=0.1092 ps=1.36 w=0.42 l=0.15
X230 VDD.t128 x4.x3.X a_1349_n4977# VDD.t127 sky130_fd_pr__pfet_01v8_hvt ad=0.16655 pd=1.39 as=0.0567 ps=0.69 w=0.42 l=0.15
X231 a_2799_n2463# Y[2].t10 GND.t173 GND.t172 sky130_fd_pr__nfet_01v8 ad=0.1092 pd=1.36 as=0.1449 ps=1.11 w=0.42 l=0.15
X232 a_2512_n3810# Y[2].t7 VDD.t188 VDD.t187 sky130_fd_pr__pfet_01v8_hvt ad=0.07665 pd=0.785 as=0.15835 ps=1.395 w=0.42 l=0.15
X233 a_3281_n3277# x3.x5.Y VDD.t10 VDD.t9 sky130_fd_pr__pfet_01v8_hvt ad=0.0567 pd=0.69 as=0.1176 ps=1.4 w=0.42 l=0.15
X234 a_2370_n3985# x16.A0 a_2512_n3810# VDD.t54 sky130_fd_pr__pfet_01v8_hvt ad=0.1932 pd=1.34 as=0.07665 ps=0.785 w=0.42 l=0.15
X235 VDD.t200 a_1143_n4163# a_1173_n3810# VDD.t199 sky130_fd_pr__pfet_01v8_hvt ad=0.0693 pd=0.75 as=0.0441 ps=0.63 w=0.42 l=0.15
X236 x5.A A[14].t3 GND.t199 GND.t198 sky130_fd_pr__nfet_01v8 ad=0.08775 pd=0.92 as=0.08937 ps=0.925 w=0.65 l=0.15
X237 VDD.t136 A[12].t1 a_2361_123# VDD.t135 sky130_fd_pr__pfet_01v8_hvt ad=0.16655 pd=1.39 as=0.0567 ps=0.69 w=0.42 l=0.15
X238 x1.x8.X a_2830_345# VDD.t32 VDD.t31 sky130_fd_pr__pfet_01v8_hvt ad=0.34 pd=2.68 as=0.14575 ps=1.335 w=1 l=0.15
X239 a_2912_n1355# A[10].t1 a_2830_n1355# VDD.t249 sky130_fd_pr__pfet_01v8_hvt ad=0.0441 pd=0.63 as=0.1092 ps=1.36 w=0.42 l=0.15
X240 a_856_n3810# Y[3].t5 VDD.t206 VDD.t205 sky130_fd_pr__pfet_01v8_hvt ad=0.07665 pd=0.785 as=0.15835 ps=1.395 w=0.42 l=0.15
X241 a_714_n3985# x16.X a_856_n3810# VDD.t6 sky130_fd_pr__pfet_01v8_hvt ad=0.1932 pd=1.34 as=0.07665 ps=0.785 w=0.42 l=0.15
X242 a_2447_n3277# x3.x6.Y a_2361_n3277# GND.t131 sky130_fd_pr__nfet_01v8 ad=0.0567 pd=0.69 as=0.1176 ps=1.4 w=0.42 l=0.15
X243 x1.x6.Y A[13].t0 GND.t142 GND.t141 sky130_fd_pr__nfet_01v8 ad=0.169 pd=1.82 as=0.169 ps=1.82 w=0.65 l=0.15
X244 VDD.t51 x3.Z[2] x6.Y VDD.t50 sky130_fd_pr__pfet_01v8_hvt ad=0.26 pd=2.52 as=0.135 ps=1.27 w=1 l=0.15
X245 x2.x3.X a_898_n1355# GND.t66 GND.t65 sky130_fd_pr__nfet_01v8 ad=0.169 pd=1.82 as=0.10025 ps=0.985 w=0.65 l=0.15
X246 a_1435_n1577# x2.x2.Y a_1349_n1577# GND.t70 sky130_fd_pr__nfet_01v8 ad=0.0567 pd=0.69 as=0.1176 ps=1.4 w=0.42 l=0.15
X247 GND.t261 A[7].t2 x3.x2.Y GND.t260 sky130_fd_pr__nfet_01v8 ad=0.169 pd=1.82 as=0.08775 ps=0.92 w=0.65 l=0.15
X248 x3.x6.Y A[5].t0 GND.t219 GND.t218 sky130_fd_pr__nfet_01v8 ad=0.169 pd=1.82 as=0.169 ps=1.82 w=0.65 l=0.15
X249 x4.Z[1] a_1349_n4977# GND.t154 GND.t153 sky130_fd_pr__nfet_01v8 ad=0.182 pd=1.86 as=0.1118 ps=1.04 w=0.65 l=0.15
X250 GND.t227 A[3].t3 x4.Z[2] GND.t226 sky130_fd_pr__nfet_01v8 ad=0.169 pd=1.82 as=0.08775 ps=0.92 w=0.65 l=0.15
X251 a_980_n4755# A[0].t4 a_898_n4755# VDD.t251 sky130_fd_pr__pfet_01v8_hvt ad=0.0441 pd=0.63 as=0.1092 ps=1.36 w=0.42 l=0.15